
 Fire Dynamics Simulator

 Current Date     : October  8, 2021  09:11:31
 Revision         : FDS6.7.6-618-g15afdd1-HEAD
 Revision Date    : Mon Aug 30 13:21:32 2021 -0400
 Compiler         : Intel ifort 19.1.3.304
 Compilation Date : Sep 02, 2021 17:53:46

 MPI Enabled;    Number of MPI Processes:      64
 OpenMP Enabled; Number of OpenMP Threads:      1

 MPI version: 3.1
 MPI library version: Intel(R) MPI Library 2019 Update 9 for Linux* OS


 Job TITLE        : Case1_Methanol_19kW
 Job ID string    : Case1_Methanol_19kW


 Miscellaneous Parameters

   Simulation Start Time (s)          0.0
   Simulation End Time (s)          600.0
   LES Calculation
   Eddy Viscosity:           Deardorff Model (C_DEARDORFF = 0.10)
   Near-wall Eddy Viscosity: WALE Model (C_WALE = 0.60)
   Turbulent Prandtl Number:         0.50
   Turbulent Schmidt Number:         0.50
   Background Pressure (Pa):    101325.00
   Ambient Temperature (C):         27.00


 Mass Fraction Transformation Matrix to Convert Species Mixtures (Columns) to Primitive Species (Rows)

                         AIR       METHANOL  PRODUCTS  WATER VA
   METHANOL              0.000000  1.000000  0.000000  0.000000
   NITROGEN              0.760088  0.000000  0.658813  0.000000
   OXYGEN                0.230276  0.000000  0.000000  0.000000
   CARBON DIOXIDE        0.000590  0.000000  0.183518  0.000000
   WATER VAPOR           0.009046  0.000000  0.157669  1.000000
   CARBON MONOXIDE       0.000000  0.000000  0.000000  0.000000
   SOOT                  0.000000  0.000000  0.000000  0.000000
   HYDROGEN              0.000000  0.000000  0.000000  0.000000
   HYDROGEN CYANIDE      0.000000  0.000000  0.000000  0.000000


 Primitive Species Information

   METHANOL
   Gas Species
   Molecular Weight (g/mol)            32.04186
   Ambient Density (kg/m^3)            1.301
   Enthalpy of Formation (J/kg)       -6.40E+06

   NITROGEN
   Gas Species
   Molecular Weight (g/mol)            28.01340
   Ambient Density (kg/m^3)            1.137
   Enthalpy of Formation (J/kg)        0.00E+00

   OXYGEN
   Gas Species
   Molecular Weight (g/mol)            31.99880
   Ambient Density (kg/m^3)            1.299
   Enthalpy of Formation (J/kg)        0.00E+00

   CARBON DIOXIDE
   Gas Species
   Molecular Weight (g/mol)            44.00950
   Ambient Density (kg/m^3)            1.787
   Enthalpy of Formation (J/kg)       -8.94E+06

   WATER VAPOR
   Gas Species
   Molecular Weight (g/mol)            18.01528
   Ambient Density (kg/m^3)            0.731
   Enthalpy of Formation (J/kg)       -1.34E+07

   CARBON MONOXIDE
   Gas Species
   Molecular Weight (g/mol)            28.01010
   Ambient Density (kg/m^3)            1.137
   Enthalpy of Formation (J/kg)       -3.95E+06

   SOOT
   Gas Species
   Molecular Weight (g/mol)            10.91042
   Ambient Density (kg/m^3)            0.443
   Enthalpy of Formation (J/kg)        0.00E+00

   HYDROGEN
   Gas Species
   Molecular Weight (g/mol)             2.01588
   Ambient Density (kg/m^3)            0.082
   Enthalpy of Formation (J/kg)        0.00E+00

   HYDROGEN CYANIDE
   Gas Species
   Molecular Weight (g/mol)            27.02534
   Ambient Density (kg/m^3)            1.097
   Enthalpy of Formation (J/kg)        4.92E+06


 Tracked (Lumped) Species Information

   AIR
   Molecular Weight (g/mol)            28.69856
   Ambient Density (kg/m^3)            1.165
   Initial Mass Fraction               1.000
   Enthalpy of Formation (J/kg)     -1.27E+05

   Sub Species                    Mass Fraction     Mole Fraction
   NITROGEN                       7.600885E-01      7.786791E-01
   OXYGEN                         2.302759E-01      2.065261E-01
   CARBON DIOXIDE                 5.896176E-04      3.844892E-04
   WATER VAPOR                    9.045969E-03      1.441034E-02
 
     Viscosity (kg/m/s) Ambient,  300 K:  1.82E-05
                                  500 K:  2.61E-05
                                 1000 K:  4.12E-05
                                 1500 K:  5.37E-05
   Therm. Cond. (W/m/K) Ambient,  300 K:  2.60E-02
                                  500 K:  3.81E-02
                                 1000 K:  6.69E-02
                                 1500 K:  9.27E-02
        Enthalpy (J/kg) Ambient,  300 K: -1.25E+05
                                  500 K:  8.11E+04
                                 1000 K:  6.33E+05
                                 1500 K:  1.23E+06
    Spec. Heat (J/kg/K) Ambient,  300 K:  1.02E+03
                                  500 K:  1.04E+03
                                 1000 K:  1.16E+03
                                 1500 K:  1.23E+03
   Diff. Coeff. (m^2/s) Ambient,  300 K:  2.07E-05
                                  500 K:  4.97E-05
                                 1000 K:  1.58E-04
                                 1500 K:  3.10E-04

   METHANOL
   Molecular Weight (g/mol)            32.04186
   Ambient Density (kg/m^3)            1.301
   Initial Mass Fraction               0.000
   Enthalpy of Formation (J/kg)     -6.40E+06

   Sub Species                    Mass Fraction     Mole Fraction
   METHANOL                       1.000000E+00      1.000000E+00
 
     Viscosity (kg/m/s) Ambient,  300 K:  9.74E-06
                                  500 K:  1.64E-05
                                 1000 K:  3.13E-05
                                 1500 K:  4.32E-05
   Therm. Cond. (W/m/K) Ambient,  300 K:  1.41E-02
                                  500 K:  3.22E-02
                                 1000 K:  9.21E-02
                                 1500 K:  1.50E-01
        Enthalpy (J/kg) Ambient,  300 K: -6.27E+06
                                  500 K: -5.95E+06
                                 1000 K: -4.76E+06
                                 1500 K: -3.22E+06
    Spec. Heat (J/kg/K) Ambient,  300 K:  1.38E+03
                                  500 K:  1.86E+03
                                 1000 K:  2.79E+03
                                 1500 K:  3.29E+03
   Diff. Coeff. (m^2/s) Ambient,  300 K:  1.58E-05
                                  500 K:  4.03E-05
                                 1000 K:  1.34E-04
                                 1500 K:  2.67E-04

   PRODUCTS
   Molecular Weight (g/mol)            27.44260
   Ambient Density (kg/m^3)            1.114
   Initial Mass Fraction               0.000
   Enthalpy of Formation (J/kg)     -3.76E+06

   Sub Species                    Mass Fraction     Mole Fraction
   NITROGEN                       6.588132E-01      6.453893E-01
   CARBON DIOXIDE                 1.835182E-01      1.144348E-01
   WATER VAPOR                    1.576686E-01      2.401759E-01
   CARBON MONOXIDE                0.000000E+00      0.000000E+00
   SOOT                           0.000000E+00      0.000000E+00
   HYDROGEN CYANIDE               0.000000E+00      0.000000E+00
 
     Viscosity (kg/m/s) Ambient,  300 K:  1.60E-05
                                  500 K:  2.34E-05
                                 1000 K:  3.87E-05
                                 1500 K:  5.15E-05
   Therm. Cond. (W/m/K) Ambient,  300 K:  2.35E-02
                                  500 K:  3.60E-02
                                 1000 K:  6.82E-02
                                 1500 K:  9.93E-02
        Enthalpy (J/kg) Ambient,  300 K: -3.76E+06
                                  500 K: -3.52E+06
                                 1000 K: -2.89E+06
                                 1500 K: -2.17E+06
    Spec. Heat (J/kg/K) Ambient,  300 K:  1.13E+03
                                  500 K:  1.19E+03
                                 1000 K:  1.36E+03
                                 1500 K:  1.48E+03
   Diff. Coeff. (m^2/s) Ambient,  300 K:  2.04E-05
                                  500 K:  5.02E-05
                                 1000 K:  1.63E-04
                                 1500 K:  3.21E-04

   WATER VAPOR
   Molecular Weight (g/mol)            18.01528
   Ambient Density (kg/m^3)            0.731
   Initial Mass Fraction               0.000
   Enthalpy of Formation (J/kg)     -1.34E+07

   Sub Species                    Mass Fraction     Mole Fraction
   WATER VAPOR                    1.000000E+00      1.000000E+00
 
     Viscosity (kg/m/s) Ambient,  300 K:  1.08E-05
                                  500 K:  1.77E-05
                                 1000 K:  3.58E-05
                                 1500 K:  5.21E-05
   Therm. Cond. (W/m/K) Ambient,  300 K:  2.01E-02
                                  500 K:  3.46E-02
                                 1000 K:  8.21E-02
                                 1500 K:  1.37E-01
        Enthalpy (J/kg) Ambient,  300 K: -1.34E+07
                                  500 K: -1.30E+07
                                 1000 K: -1.20E+07
                                 1500 K: -1.07E+07
    Spec. Heat (J/kg/K) Ambient,  300 K:  1.86E+03
                                  500 K:  1.96E+03
                                 1000 K:  2.29E+03
                                 1500 K:  2.63E+03
   Diff. Coeff. (m^2/s) Ambient,  300 K:  2.19E-05
                                  500 K:  5.78E-05
                                 1000 K:  1.98E-04
                                 1500 K:  3.95E-04
 
   Liq. Enthalpy (J/kg)     Melt  273 K: -1.60E+07
                                  323 K: -1.58E+07
                            Boil  373 K: -1.56E+07
 
   Liq. Spec. Heat (J/kg/K) Melt  273 K:  4.23E+03
                                  323 K:  4.18E+03
                            Boil  373 K:  4.22E+03
 
   Heat of Vapor. (J/kg)    Melt  273 K:  2.50E+06
                                  323 K:  2.39E+06
                            Boil  373 K:  2.27E+06


 Gas Phase Reaction Information

   Fuel                                           Heat of Combustion (kJ/kg)
   METHANOL                                                       20977.6211

   Stoichiometry

   Primitive Species Stoich. Coeff.
   Species ID                                                          Molar
   METHANOL                                                        -1.000000
   OXYGEN                                                          -1.500000
   CARBON DIOXIDE                                                   1.000000
   WATER VAPOR                                                      2.000000

   Tracked (Lumped) Species Stoich. Coeff.
   Species ID                                             Molar         Mass
   AIR                                                -7.263004    -6.505171
   METHANOL                                           -1.000000    -1.000000
   PRODUCTS                                            8.763004     7.505171

   Reaction Kinetics

   Arrhenius Parameters
   Pre-exponential:    Infinite
   Activation Energy:  N/A

   ODE Solver:  EXPLICIT EULER
   Extinction Model:  EXTINCTION 2
   Auto-Ignition Temperature (K):       0.0
   Critical Flame Temperature (K):   1530.2


 Material Information

   1 CONCRETE                                                    
     Emissivity                      0.900
     Density (kg/m3)                2200.0
     Specific Heat (kJ/kg/K)       1.05E+00
     Conductivity (W/m/K)          1.40E+00

   2 STEEL                                                       
     Eurocode 3
     Emissivity                      0.900
     Density (kg/m3)                7850.0
     Specific Heat (kJ/kg/K)       4.44E-01
     Conductivity (W/m/K)          5.31E+01


 Surface Conditions

   0 INERT (DEFAULT)

   1 Methanol19.00kW
     HRR Per Unit Area (kW/m2)        211.1
     METHANOL Mass Flux (kg/s/m2)   1.01E-02

   2 STEEL_1mm
     Material List
          1  STEEL
     Layer  1
        Thickness   (m):  0.00200
        Density (kg/m3):  7850.00
        STEEL, Mass fraction:    1.00
     Total surface density    15.700 kg/m2
     Reaction products considered from the first  0.50 layers.
     Solid Phase Node, Layer, Coordinates(m):
                    0      1       0.0000000
                    1      1       0.0020000
     Exposed Backing

   3 OPEN
     Passive Vent to Atmosphere

   4 MIRROR
     Symmetry Plane

   5 INTERPOLATED

   6 PERIODIC

   7 HVAC

   8 MASSLESS TRACER

   9 DROPLET

  10 EVACUATION_OUTFLOW
     Normal Velocity (m/s)         0.000

  11 MASSLESS TARGET

  12 PERIODIC FLOW ONLY


 PROPerty Information

   1 TC
     Smokeview ID                sensor

   2 particle_nozzles
     Flow Rate (L/min)               6.00
     Particle Class              water_droplets
     Smokeview ID                nozzle


 Cut-off Density and Temperature

    Minimum Temperature:   -10.0 C
    Maximum Temperature:  2726.8 C
    Minimum Density:  1.165E-01 kg/m3
    Maximum Density:  2.968E+00 kg/m3


 Device Information

   1 ID: First_Ceiling_Gas_Temperature
     QUANTITY: THERMOCOUPLE
     Coordinates (X,Y,Z):   0.250E+01   0.200E+01   0.180E+01
     TEMPORAL STATISTIC: TIME AVERAGE
   2 ID: Fourth_Ceiling_Gas_Temperature
     QUANTITY: THERMOCOUPLE
     Coordinates (X,Y,Z):   0.380E+01   0.200E+01   0.180E+01
     TEMPORAL STATISTIC: TIME AVERAGE
   3 ID: LOWER_LAYER_THERMOCOUPLE.001
     QUANTITY: TEMPERATURE
     Coordinates (X,Y,Z):   0.100E+01   0.200E+01   0.500E+00
     TEMPORAL STATISTIC: TIME AVERAGE
   4 ID: Second_Ceiling_Gas_Temperature
     QUANTITY: THERMOCOUPLE
     Coordinates (X,Y,Z):   0.300E+01   0.200E+01   0.180E+01
     TEMPORAL STATISTIC: TIME AVERAGE
   5 ID: Third_Ceiling_Gas_Temperature
     QUANTITY: THERMOCOUPLE
     Coordinates (X,Y,Z):   0.350E+01   0.200E+01   0.180E+01
     TEMPORAL STATISTIC: TIME AVERAGE
   6 ID: UPPER_LAYER_THERMOCOUPLE.001
     QUANTITY: TEMPERATURE
     Coordinates (X,Y,Z):   0.100E+01   0.200E+01   0.180E+01
     TEMPORAL STATISTIC: TIME AVERAGE
   7 ID: First_Ceiling_Gas_Temperature_R2.001
     QUANTITY: THERMOCOUPLE
     Coordinates (X,Y,Z):   0.242E+01   0.193E+01   0.172E+01
     TEMPORAL STATISTIC: TIME AVERAGE
  Property ID: TC
   8 ID: First_Ceiling_Gas_Temperature_R2.002
     QUANTITY: THERMOCOUPLE
     Coordinates (X,Y,Z):   0.248E+01   0.193E+01   0.172E+01
     TEMPORAL STATISTIC: TIME AVERAGE
  Property ID: TC
   9 ID: First_Ceiling_Gas_Temperature_R2.003
     QUANTITY: THERMOCOUPLE
     Coordinates (X,Y,Z):   0.252E+01   0.193E+01   0.172E+01
     TEMPORAL STATISTIC: TIME AVERAGE
  Property ID: TC
  10 ID: First_Ceiling_Gas_Temperature_R2.004
     QUANTITY: THERMOCOUPLE
     Coordinates (X,Y,Z):   0.258E+01   0.193E+01   0.172E+01
     TEMPORAL STATISTIC: TIME AVERAGE
  Property ID: TC
  11 ID: First_Ceiling_Gas_Temperature_R2.005
     QUANTITY: THERMOCOUPLE
     Coordinates (X,Y,Z):   0.242E+01   0.198E+01   0.172E+01
     TEMPORAL STATISTIC: TIME AVERAGE
  Property ID: TC
  12 ID: First_Ceiling_Gas_Temperature_R2.006
     QUANTITY: THERMOCOUPLE
     Coordinates (X,Y,Z):   0.248E+01   0.198E+01   0.172E+01
     TEMPORAL STATISTIC: TIME AVERAGE
  Property ID: TC
  13 ID: First_Ceiling_Gas_Temperature_R2.007
     QUANTITY: THERMOCOUPLE
     Coordinates (X,Y,Z):   0.252E+01   0.198E+01   0.172E+01
     TEMPORAL STATISTIC: TIME AVERAGE
  Property ID: TC
  14 ID: First_Ceiling_Gas_Temperature_R2.008
     QUANTITY: THERMOCOUPLE
     Coordinates (X,Y,Z):   0.258E+01   0.198E+01   0.172E+01
     TEMPORAL STATISTIC: TIME AVERAGE
  Property ID: TC
  15 ID: First_Ceiling_Gas_Temperature_R2.009
     QUANTITY: THERMOCOUPLE
     Coordinates (X,Y,Z):   0.242E+01   0.202E+01   0.172E+01
     TEMPORAL STATISTIC: TIME AVERAGE
  Property ID: TC
  16 ID: First_Ceiling_Gas_Temperature_R2.010
     QUANTITY: THERMOCOUPLE
     Coordinates (X,Y,Z):   0.248E+01   0.202E+01   0.172E+01
     TEMPORAL STATISTIC: TIME AVERAGE
  Property ID: TC
  17 ID: First_Ceiling_Gas_Temperature_R2.011
     QUANTITY: THERMOCOUPLE
     Coordinates (X,Y,Z):   0.252E+01   0.202E+01   0.172E+01
     TEMPORAL STATISTIC: TIME AVERAGE
  Property ID: TC
  18 ID: First_Ceiling_Gas_Temperature_R2.012
     QUANTITY: THERMOCOUPLE
     Coordinates (X,Y,Z):   0.258E+01   0.202E+01   0.172E+01
     TEMPORAL STATISTIC: TIME AVERAGE
  Property ID: TC
  19 ID: First_Ceiling_Gas_Temperature_R2.013
     QUANTITY: THERMOCOUPLE
     Coordinates (X,Y,Z):   0.242E+01   0.208E+01   0.172E+01
     TEMPORAL STATISTIC: TIME AVERAGE
  Property ID: TC
  20 ID: First_Ceiling_Gas_Temperature_R2.014
     QUANTITY: THERMOCOUPLE
     Coordinates (X,Y,Z):   0.248E+01   0.208E+01   0.172E+01
     TEMPORAL STATISTIC: TIME AVERAGE
  Property ID: TC
  21 ID: First_Ceiling_Gas_Temperature_R2.015
     QUANTITY: THERMOCOUPLE
     Coordinates (X,Y,Z):   0.252E+01   0.208E+01   0.172E+01
     TEMPORAL STATISTIC: TIME AVERAGE
  Property ID: TC
  22 ID: First_Ceiling_Gas_Temperature_R2.016
     QUANTITY: THERMOCOUPLE
     Coordinates (X,Y,Z):   0.258E+01   0.208E+01   0.172E+01
     TEMPORAL STATISTIC: TIME AVERAGE
  Property ID: TC
  23 ID: First_Ceiling_Gas_Temperature_R2.017
     QUANTITY: THERMOCOUPLE
     Coordinates (X,Y,Z):   0.242E+01   0.193E+01   0.177E+01
     TEMPORAL STATISTIC: TIME AVERAGE
  Property ID: TC
  24 ID: First_Ceiling_Gas_Temperature_R2.018
     QUANTITY: THERMOCOUPLE
     Coordinates (X,Y,Z):   0.248E+01   0.193E+01   0.177E+01
     TEMPORAL STATISTIC: TIME AVERAGE
  Property ID: TC
  25 ID: First_Ceiling_Gas_Temperature_R2.019
     QUANTITY: THERMOCOUPLE
     Coordinates (X,Y,Z):   0.252E+01   0.193E+01   0.177E+01
     TEMPORAL STATISTIC: TIME AVERAGE
  Property ID: TC
  26 ID: First_Ceiling_Gas_Temperature_R2.020
     QUANTITY: THERMOCOUPLE
     Coordinates (X,Y,Z):   0.258E+01   0.193E+01   0.177E+01
     TEMPORAL STATISTIC: TIME AVERAGE
  Property ID: TC
  27 ID: First_Ceiling_Gas_Temperature_R2.021
     QUANTITY: THERMOCOUPLE
     Coordinates (X,Y,Z):   0.242E+01   0.198E+01   0.177E+01
     TEMPORAL STATISTIC: TIME AVERAGE
  Property ID: TC
  28 ID: First_Ceiling_Gas_Temperature_R2.022
     QUANTITY: THERMOCOUPLE
     Coordinates (X,Y,Z):   0.248E+01   0.198E+01   0.177E+01
     TEMPORAL STATISTIC: TIME AVERAGE
  Property ID: TC
  29 ID: First_Ceiling_Gas_Temperature_R2.023
     QUANTITY: THERMOCOUPLE
     Coordinates (X,Y,Z):   0.252E+01   0.198E+01   0.177E+01
     TEMPORAL STATISTIC: TIME AVERAGE
  Property ID: TC
  30 ID: First_Ceiling_Gas_Temperature_R2.024
     QUANTITY: THERMOCOUPLE
     Coordinates (X,Y,Z):   0.258E+01   0.198E+01   0.177E+01
     TEMPORAL STATISTIC: TIME AVERAGE
  Property ID: TC
  31 ID: First_Ceiling_Gas_Temperature_R2.025
     QUANTITY: THERMOCOUPLE
     Coordinates (X,Y,Z):   0.242E+01   0.202E+01   0.177E+01
     TEMPORAL STATISTIC: TIME AVERAGE
  Property ID: TC
  32 ID: First_Ceiling_Gas_Temperature_R2.026
     QUANTITY: THERMOCOUPLE
     Coordinates (X,Y,Z):   0.248E+01   0.202E+01   0.177E+01
     TEMPORAL STATISTIC: TIME AVERAGE
  Property ID: TC
  33 ID: First_Ceiling_Gas_Temperature_R2.027
     QUANTITY: THERMOCOUPLE
     Coordinates (X,Y,Z):   0.252E+01   0.202E+01   0.177E+01
     TEMPORAL STATISTIC: TIME AVERAGE
  Property ID: TC
  34 ID: First_Ceiling_Gas_Temperature_R2.028
     QUANTITY: THERMOCOUPLE
     Coordinates (X,Y,Z):   0.258E+01   0.202E+01   0.177E+01
     TEMPORAL STATISTIC: TIME AVERAGE
  Property ID: TC
  35 ID: First_Ceiling_Gas_Temperature_R2.029
     QUANTITY: THERMOCOUPLE
     Coordinates (X,Y,Z):   0.242E+01   0.208E+01   0.177E+01
     TEMPORAL STATISTIC: TIME AVERAGE
  Property ID: TC
  36 ID: First_Ceiling_Gas_Temperature_R2.030
     QUANTITY: THERMOCOUPLE
     Coordinates (X,Y,Z):   0.248E+01   0.208E+01   0.177E+01
     TEMPORAL STATISTIC: TIME AVERAGE
  Property ID: TC
  37 ID: First_Ceiling_Gas_Temperature_R2.031
     QUANTITY: THERMOCOUPLE
     Coordinates (X,Y,Z):   0.252E+01   0.208E+01   0.177E+01
     TEMPORAL STATISTIC: TIME AVERAGE
  Property ID: TC
  38 ID: First_Ceiling_Gas_Temperature_R2.032
     QUANTITY: THERMOCOUPLE
     Coordinates (X,Y,Z):   0.258E+01   0.208E+01   0.177E+01
     TEMPORAL STATISTIC: TIME AVERAGE
  Property ID: TC
  39 ID: First_Ceiling_Gas_Temperature_R2.033
     QUANTITY: THERMOCOUPLE
     Coordinates (X,Y,Z):   0.242E+01   0.193E+01   0.182E+01
     TEMPORAL STATISTIC: TIME AVERAGE
  Property ID: TC
  40 ID: First_Ceiling_Gas_Temperature_R2.034
     QUANTITY: THERMOCOUPLE
     Coordinates (X,Y,Z):   0.248E+01   0.193E+01   0.182E+01
     TEMPORAL STATISTIC: TIME AVERAGE
  Property ID: TC
  41 ID: First_Ceiling_Gas_Temperature_R2.035
     QUANTITY: THERMOCOUPLE
     Coordinates (X,Y,Z):   0.252E+01   0.193E+01   0.182E+01
     TEMPORAL STATISTIC: TIME AVERAGE
  Property ID: TC
  42 ID: First_Ceiling_Gas_Temperature_R2.036
     QUANTITY: THERMOCOUPLE
     Coordinates (X,Y,Z):   0.258E+01   0.193E+01   0.182E+01
     TEMPORAL STATISTIC: TIME AVERAGE
  Property ID: TC
  43 ID: First_Ceiling_Gas_Temperature_R2.037
     QUANTITY: THERMOCOUPLE
     Coordinates (X,Y,Z):   0.242E+01   0.198E+01   0.182E+01
     TEMPORAL STATISTIC: TIME AVERAGE
  Property ID: TC
  44 ID: First_Ceiling_Gas_Temperature_R2.038
     QUANTITY: THERMOCOUPLE
     Coordinates (X,Y,Z):   0.248E+01   0.198E+01   0.182E+01
     TEMPORAL STATISTIC: TIME AVERAGE
  Property ID: TC
  45 ID: First_Ceiling_Gas_Temperature_R2.039
     QUANTITY: THERMOCOUPLE
     Coordinates (X,Y,Z):   0.252E+01   0.198E+01   0.182E+01
     TEMPORAL STATISTIC: TIME AVERAGE
  Property ID: TC
  46 ID: First_Ceiling_Gas_Temperature_R2.040
     QUANTITY: THERMOCOUPLE
     Coordinates (X,Y,Z):   0.258E+01   0.198E+01   0.182E+01
     TEMPORAL STATISTIC: TIME AVERAGE
  Property ID: TC
  47 ID: First_Ceiling_Gas_Temperature_R2.041
     QUANTITY: THERMOCOUPLE
     Coordinates (X,Y,Z):   0.242E+01   0.202E+01   0.182E+01
     TEMPORAL STATISTIC: TIME AVERAGE
  Property ID: TC
  48 ID: First_Ceiling_Gas_Temperature_R2.042
     QUANTITY: THERMOCOUPLE
     Coordinates (X,Y,Z):   0.248E+01   0.202E+01   0.182E+01
     TEMPORAL STATISTIC: TIME AVERAGE
  Property ID: TC
  49 ID: First_Ceiling_Gas_Temperature_R2.043
     QUANTITY: THERMOCOUPLE
     Coordinates (X,Y,Z):   0.252E+01   0.202E+01   0.182E+01
     TEMPORAL STATISTIC: TIME AVERAGE
  Property ID: TC
  50 ID: First_Ceiling_Gas_Temperature_R2.044
     QUANTITY: THERMOCOUPLE
     Coordinates (X,Y,Z):   0.258E+01   0.202E+01   0.182E+01
     TEMPORAL STATISTIC: TIME AVERAGE
  Property ID: TC
  51 ID: First_Ceiling_Gas_Temperature_R2.045
     QUANTITY: THERMOCOUPLE
     Coordinates (X,Y,Z):   0.242E+01   0.208E+01   0.182E+01
     TEMPORAL STATISTIC: TIME AVERAGE
  Property ID: TC
  52 ID: First_Ceiling_Gas_Temperature_R2.046
     QUANTITY: THERMOCOUPLE
     Coordinates (X,Y,Z):   0.248E+01   0.208E+01   0.182E+01
     TEMPORAL STATISTIC: TIME AVERAGE
  Property ID: TC
  53 ID: First_Ceiling_Gas_Temperature_R2.047
     QUANTITY: THERMOCOUPLE
     Coordinates (X,Y,Z):   0.252E+01   0.208E+01   0.182E+01
     TEMPORAL STATISTIC: TIME AVERAGE
  Property ID: TC
  54 ID: First_Ceiling_Gas_Temperature_R2.048
     QUANTITY: THERMOCOUPLE
     Coordinates (X,Y,Z):   0.258E+01   0.208E+01   0.182E+01
     TEMPORAL STATISTIC: TIME AVERAGE
  Property ID: TC
  55 ID: First_Ceiling_Gas_Temperature_R2.049
     QUANTITY: THERMOCOUPLE
     Coordinates (X,Y,Z):   0.242E+01   0.193E+01   0.188E+01
     TEMPORAL STATISTIC: TIME AVERAGE
  Property ID: TC
  56 ID: First_Ceiling_Gas_Temperature_R2.050
     QUANTITY: THERMOCOUPLE
     Coordinates (X,Y,Z):   0.248E+01   0.193E+01   0.188E+01
     TEMPORAL STATISTIC: TIME AVERAGE
  Property ID: TC
  57 ID: First_Ceiling_Gas_Temperature_R2.051
     QUANTITY: THERMOCOUPLE
     Coordinates (X,Y,Z):   0.252E+01   0.193E+01   0.188E+01
     TEMPORAL STATISTIC: TIME AVERAGE
  Property ID: TC
  58 ID: First_Ceiling_Gas_Temperature_R2.052
     QUANTITY: THERMOCOUPLE
     Coordinates (X,Y,Z):   0.258E+01   0.193E+01   0.188E+01
     TEMPORAL STATISTIC: TIME AVERAGE
  Property ID: TC
  59 ID: First_Ceiling_Gas_Temperature_R2.053
     QUANTITY: THERMOCOUPLE
     Coordinates (X,Y,Z):   0.242E+01   0.198E+01   0.188E+01
     TEMPORAL STATISTIC: TIME AVERAGE
  Property ID: TC
  60 ID: First_Ceiling_Gas_Temperature_R2.054
     QUANTITY: THERMOCOUPLE
     Coordinates (X,Y,Z):   0.248E+01   0.198E+01   0.188E+01
     TEMPORAL STATISTIC: TIME AVERAGE
  Property ID: TC
  61 ID: First_Ceiling_Gas_Temperature_R2.055
     QUANTITY: THERMOCOUPLE
     Coordinates (X,Y,Z):   0.252E+01   0.198E+01   0.188E+01
     TEMPORAL STATISTIC: TIME AVERAGE
  Property ID: TC
  62 ID: First_Ceiling_Gas_Temperature_R2.056
     QUANTITY: THERMOCOUPLE
     Coordinates (X,Y,Z):   0.258E+01   0.198E+01   0.188E+01
     TEMPORAL STATISTIC: TIME AVERAGE
  Property ID: TC
  63 ID: First_Ceiling_Gas_Temperature_R2.057
     QUANTITY: THERMOCOUPLE
     Coordinates (X,Y,Z):   0.242E+01   0.202E+01   0.188E+01
     TEMPORAL STATISTIC: TIME AVERAGE
  Property ID: TC
  64 ID: First_Ceiling_Gas_Temperature_R2.058
     QUANTITY: THERMOCOUPLE
     Coordinates (X,Y,Z):   0.248E+01   0.202E+01   0.188E+01
     TEMPORAL STATISTIC: TIME AVERAGE
  Property ID: TC
  65 ID: First_Ceiling_Gas_Temperature_R2.059
     QUANTITY: THERMOCOUPLE
     Coordinates (X,Y,Z):   0.252E+01   0.202E+01   0.188E+01
     TEMPORAL STATISTIC: TIME AVERAGE
  Property ID: TC
  66 ID: First_Ceiling_Gas_Temperature_R2.060
     QUANTITY: THERMOCOUPLE
     Coordinates (X,Y,Z):   0.258E+01   0.202E+01   0.188E+01
     TEMPORAL STATISTIC: TIME AVERAGE
  Property ID: TC
  67 ID: First_Ceiling_Gas_Temperature_R2.061
     QUANTITY: THERMOCOUPLE
     Coordinates (X,Y,Z):   0.242E+01   0.208E+01   0.188E+01
     TEMPORAL STATISTIC: TIME AVERAGE
  Property ID: TC
  68 ID: First_Ceiling_Gas_Temperature_R2.062
     QUANTITY: THERMOCOUPLE
     Coordinates (X,Y,Z):   0.248E+01   0.208E+01   0.188E+01
     TEMPORAL STATISTIC: TIME AVERAGE
  Property ID: TC
  69 ID: First_Ceiling_Gas_Temperature_R2.063
     QUANTITY: THERMOCOUPLE
     Coordinates (X,Y,Z):   0.252E+01   0.208E+01   0.188E+01
     TEMPORAL STATISTIC: TIME AVERAGE
  Property ID: TC
  70 ID: First_Ceiling_Gas_Temperature_R2.064
     QUANTITY: THERMOCOUPLE
     Coordinates (X,Y,Z):   0.258E+01   0.208E+01   0.188E+01
     TEMPORAL STATISTIC: TIME AVERAGE
  Property ID: TC
  71 ID: Second_Ceiling_Gas_Temperature_R2.001
     QUANTITY: THERMOCOUPLE
     Coordinates (X,Y,Z):   0.292E+01   0.193E+01   0.172E+01
     TEMPORAL STATISTIC: TIME AVERAGE
  Property ID: TC
  72 ID: Second_Ceiling_Gas_Temperature_R2.002
     QUANTITY: THERMOCOUPLE
     Coordinates (X,Y,Z):   0.298E+01   0.193E+01   0.172E+01
     TEMPORAL STATISTIC: TIME AVERAGE
  Property ID: TC
  73 ID: Second_Ceiling_Gas_Temperature_R2.003
     QUANTITY: THERMOCOUPLE
     Coordinates (X,Y,Z):   0.302E+01   0.193E+01   0.172E+01
     TEMPORAL STATISTIC: TIME AVERAGE
  Property ID: TC
  74 ID: Second_Ceiling_Gas_Temperature_R2.004
     QUANTITY: THERMOCOUPLE
     Coordinates (X,Y,Z):   0.308E+01   0.193E+01   0.172E+01
     TEMPORAL STATISTIC: TIME AVERAGE
  Property ID: TC
  75 ID: Second_Ceiling_Gas_Temperature_R2.005
     QUANTITY: THERMOCOUPLE
     Coordinates (X,Y,Z):   0.292E+01   0.198E+01   0.172E+01
     TEMPORAL STATISTIC: TIME AVERAGE
  Property ID: TC
  76 ID: Second_Ceiling_Gas_Temperature_R2.006
     QUANTITY: THERMOCOUPLE
     Coordinates (X,Y,Z):   0.298E+01   0.198E+01   0.172E+01
     TEMPORAL STATISTIC: TIME AVERAGE
  Property ID: TC
  77 ID: Second_Ceiling_Gas_Temperature_R2.007
     QUANTITY: THERMOCOUPLE
     Coordinates (X,Y,Z):   0.302E+01   0.198E+01   0.172E+01
     TEMPORAL STATISTIC: TIME AVERAGE
  Property ID: TC
  78 ID: Second_Ceiling_Gas_Temperature_R2.008
     QUANTITY: THERMOCOUPLE
     Coordinates (X,Y,Z):   0.308E+01   0.198E+01   0.172E+01
     TEMPORAL STATISTIC: TIME AVERAGE
  Property ID: TC
  79 ID: Second_Ceiling_Gas_Temperature_R2.009
     QUANTITY: THERMOCOUPLE
     Coordinates (X,Y,Z):   0.292E+01   0.202E+01   0.172E+01
     TEMPORAL STATISTIC: TIME AVERAGE
  Property ID: TC
  80 ID: Second_Ceiling_Gas_Temperature_R2.010
     QUANTITY: THERMOCOUPLE
     Coordinates (X,Y,Z):   0.298E+01   0.202E+01   0.172E+01
     TEMPORAL STATISTIC: TIME AVERAGE
  Property ID: TC
  81 ID: Second_Ceiling_Gas_Temperature_R2.011
     QUANTITY: THERMOCOUPLE
     Coordinates (X,Y,Z):   0.302E+01   0.202E+01   0.172E+01
     TEMPORAL STATISTIC: TIME AVERAGE
  Property ID: TC
  82 ID: Second_Ceiling_Gas_Temperature_R2.012
     QUANTITY: THERMOCOUPLE
     Coordinates (X,Y,Z):   0.308E+01   0.202E+01   0.172E+01
     TEMPORAL STATISTIC: TIME AVERAGE
  Property ID: TC
  83 ID: Second_Ceiling_Gas_Temperature_R2.013
     QUANTITY: THERMOCOUPLE
     Coordinates (X,Y,Z):   0.292E+01   0.208E+01   0.172E+01
     TEMPORAL STATISTIC: TIME AVERAGE
  Property ID: TC
  84 ID: Second_Ceiling_Gas_Temperature_R2.014
     QUANTITY: THERMOCOUPLE
     Coordinates (X,Y,Z):   0.298E+01   0.208E+01   0.172E+01
     TEMPORAL STATISTIC: TIME AVERAGE
  Property ID: TC
  85 ID: Second_Ceiling_Gas_Temperature_R2.015
     QUANTITY: THERMOCOUPLE
     Coordinates (X,Y,Z):   0.302E+01   0.208E+01   0.172E+01
     TEMPORAL STATISTIC: TIME AVERAGE
  Property ID: TC
  86 ID: Second_Ceiling_Gas_Temperature_R2.016
     QUANTITY: THERMOCOUPLE
     Coordinates (X,Y,Z):   0.308E+01   0.208E+01   0.172E+01
     TEMPORAL STATISTIC: TIME AVERAGE
  Property ID: TC
  87 ID: Second_Ceiling_Gas_Temperature_R2.017
     QUANTITY: THERMOCOUPLE
     Coordinates (X,Y,Z):   0.292E+01   0.193E+01   0.177E+01
     TEMPORAL STATISTIC: TIME AVERAGE
  Property ID: TC
  88 ID: Second_Ceiling_Gas_Temperature_R2.018
     QUANTITY: THERMOCOUPLE
     Coordinates (X,Y,Z):   0.298E+01   0.193E+01   0.177E+01
     TEMPORAL STATISTIC: TIME AVERAGE
  Property ID: TC
  89 ID: Second_Ceiling_Gas_Temperature_R2.019
     QUANTITY: THERMOCOUPLE
     Coordinates (X,Y,Z):   0.302E+01   0.193E+01   0.177E+01
     TEMPORAL STATISTIC: TIME AVERAGE
  Property ID: TC
  90 ID: Second_Ceiling_Gas_Temperature_R2.020
     QUANTITY: THERMOCOUPLE
     Coordinates (X,Y,Z):   0.308E+01   0.193E+01   0.177E+01
     TEMPORAL STATISTIC: TIME AVERAGE
  Property ID: TC
  91 ID: Second_Ceiling_Gas_Temperature_R2.021
     QUANTITY: THERMOCOUPLE
     Coordinates (X,Y,Z):   0.292E+01   0.198E+01   0.177E+01
     TEMPORAL STATISTIC: TIME AVERAGE
  Property ID: TC
  92 ID: Second_Ceiling_Gas_Temperature_R2.022
     QUANTITY: THERMOCOUPLE
     Coordinates (X,Y,Z):   0.298E+01   0.198E+01   0.177E+01
     TEMPORAL STATISTIC: TIME AVERAGE
  Property ID: TC
  93 ID: Second_Ceiling_Gas_Temperature_R2.023
     QUANTITY: THERMOCOUPLE
     Coordinates (X,Y,Z):   0.302E+01   0.198E+01   0.177E+01
     TEMPORAL STATISTIC: TIME AVERAGE
  Property ID: TC
  94 ID: Second_Ceiling_Gas_Temperature_R2.024
     QUANTITY: THERMOCOUPLE
     Coordinates (X,Y,Z):   0.308E+01   0.198E+01   0.177E+01
     TEMPORAL STATISTIC: TIME AVERAGE
  Property ID: TC
  95 ID: Second_Ceiling_Gas_Temperature_R2.025
     QUANTITY: THERMOCOUPLE
     Coordinates (X,Y,Z):   0.292E+01   0.202E+01   0.177E+01
     TEMPORAL STATISTIC: TIME AVERAGE
  Property ID: TC
  96 ID: Second_Ceiling_Gas_Temperature_R2.026
     QUANTITY: THERMOCOUPLE
     Coordinates (X,Y,Z):   0.298E+01   0.202E+01   0.177E+01
     TEMPORAL STATISTIC: TIME AVERAGE
  Property ID: TC
  97 ID: Second_Ceiling_Gas_Temperature_R2.027
     QUANTITY: THERMOCOUPLE
     Coordinates (X,Y,Z):   0.302E+01   0.202E+01   0.177E+01
     TEMPORAL STATISTIC: TIME AVERAGE
  Property ID: TC
  98 ID: Second_Ceiling_Gas_Temperature_R2.028
     QUANTITY: THERMOCOUPLE
     Coordinates (X,Y,Z):   0.308E+01   0.202E+01   0.177E+01
     TEMPORAL STATISTIC: TIME AVERAGE
  Property ID: TC
  99 ID: Second_Ceiling_Gas_Temperature_R2.029
     QUANTITY: THERMOCOUPLE
     Coordinates (X,Y,Z):   0.292E+01   0.208E+01   0.177E+01
     TEMPORAL STATISTIC: TIME AVERAGE
  Property ID: TC
 100 ID: Second_Ceiling_Gas_Temperature_R2.030
     QUANTITY: THERMOCOUPLE
     Coordinates (X,Y,Z):   0.298E+01   0.208E+01   0.177E+01
     TEMPORAL STATISTIC: TIME AVERAGE
  Property ID: TC
 101 ID: Second_Ceiling_Gas_Temperature_R2.031
     QUANTITY: THERMOCOUPLE
     Coordinates (X,Y,Z):   0.302E+01   0.208E+01   0.177E+01
     TEMPORAL STATISTIC: TIME AVERAGE
  Property ID: TC
 102 ID: Second_Ceiling_Gas_Temperature_R2.032
     QUANTITY: THERMOCOUPLE
     Coordinates (X,Y,Z):   0.308E+01   0.208E+01   0.177E+01
     TEMPORAL STATISTIC: TIME AVERAGE
  Property ID: TC
 103 ID: Second_Ceiling_Gas_Temperature_R2.033
     QUANTITY: THERMOCOUPLE
     Coordinates (X,Y,Z):   0.292E+01   0.193E+01   0.182E+01
     TEMPORAL STATISTIC: TIME AVERAGE
  Property ID: TC
 104 ID: Second_Ceiling_Gas_Temperature_R2.034
     QUANTITY: THERMOCOUPLE
     Coordinates (X,Y,Z):   0.298E+01   0.193E+01   0.182E+01
     TEMPORAL STATISTIC: TIME AVERAGE
  Property ID: TC
 105 ID: Second_Ceiling_Gas_Temperature_R2.035
     QUANTITY: THERMOCOUPLE
     Coordinates (X,Y,Z):   0.302E+01   0.193E+01   0.182E+01
     TEMPORAL STATISTIC: TIME AVERAGE
  Property ID: TC
 106 ID: Second_Ceiling_Gas_Temperature_R2.036
     QUANTITY: THERMOCOUPLE
     Coordinates (X,Y,Z):   0.308E+01   0.193E+01   0.182E+01
     TEMPORAL STATISTIC: TIME AVERAGE
  Property ID: TC
 107 ID: Second_Ceiling_Gas_Temperature_R2.037
     QUANTITY: THERMOCOUPLE
     Coordinates (X,Y,Z):   0.292E+01   0.198E+01   0.182E+01
     TEMPORAL STATISTIC: TIME AVERAGE
  Property ID: TC
 108 ID: Second_Ceiling_Gas_Temperature_R2.038
     QUANTITY: THERMOCOUPLE
     Coordinates (X,Y,Z):   0.298E+01   0.198E+01   0.182E+01
     TEMPORAL STATISTIC: TIME AVERAGE
  Property ID: TC
 109 ID: Second_Ceiling_Gas_Temperature_R2.039
     QUANTITY: THERMOCOUPLE
     Coordinates (X,Y,Z):   0.302E+01   0.198E+01   0.182E+01
     TEMPORAL STATISTIC: TIME AVERAGE
  Property ID: TC
 110 ID: Second_Ceiling_Gas_Temperature_R2.040
     QUANTITY: THERMOCOUPLE
     Coordinates (X,Y,Z):   0.308E+01   0.198E+01   0.182E+01
     TEMPORAL STATISTIC: TIME AVERAGE
  Property ID: TC
 111 ID: Second_Ceiling_Gas_Temperature_R2.041
     QUANTITY: THERMOCOUPLE
     Coordinates (X,Y,Z):   0.292E+01   0.202E+01   0.182E+01
     TEMPORAL STATISTIC: TIME AVERAGE
  Property ID: TC
 112 ID: Second_Ceiling_Gas_Temperature_R2.042
     QUANTITY: THERMOCOUPLE
     Coordinates (X,Y,Z):   0.298E+01   0.202E+01   0.182E+01
     TEMPORAL STATISTIC: TIME AVERAGE
  Property ID: TC
 113 ID: Second_Ceiling_Gas_Temperature_R2.043
     QUANTITY: THERMOCOUPLE
     Coordinates (X,Y,Z):   0.302E+01   0.202E+01   0.182E+01
     TEMPORAL STATISTIC: TIME AVERAGE
  Property ID: TC
 114 ID: Second_Ceiling_Gas_Temperature_R2.044
     QUANTITY: THERMOCOUPLE
     Coordinates (X,Y,Z):   0.308E+01   0.202E+01   0.182E+01
     TEMPORAL STATISTIC: TIME AVERAGE
  Property ID: TC
 115 ID: Second_Ceiling_Gas_Temperature_R2.045
     QUANTITY: THERMOCOUPLE
     Coordinates (X,Y,Z):   0.292E+01   0.208E+01   0.182E+01
     TEMPORAL STATISTIC: TIME AVERAGE
  Property ID: TC
 116 ID: Second_Ceiling_Gas_Temperature_R2.046
     QUANTITY: THERMOCOUPLE
     Coordinates (X,Y,Z):   0.298E+01   0.208E+01   0.182E+01
     TEMPORAL STATISTIC: TIME AVERAGE
  Property ID: TC
 117 ID: Second_Ceiling_Gas_Temperature_R2.047
     QUANTITY: THERMOCOUPLE
     Coordinates (X,Y,Z):   0.302E+01   0.208E+01   0.182E+01
     TEMPORAL STATISTIC: TIME AVERAGE
  Property ID: TC
 118 ID: Second_Ceiling_Gas_Temperature_R2.048
     QUANTITY: THERMOCOUPLE
     Coordinates (X,Y,Z):   0.308E+01   0.208E+01   0.182E+01
     TEMPORAL STATISTIC: TIME AVERAGE
  Property ID: TC
 119 ID: Second_Ceiling_Gas_Temperature_R2.049
     QUANTITY: THERMOCOUPLE
     Coordinates (X,Y,Z):   0.292E+01   0.193E+01   0.188E+01
     TEMPORAL STATISTIC: TIME AVERAGE
  Property ID: TC
 120 ID: Second_Ceiling_Gas_Temperature_R2.050
     QUANTITY: THERMOCOUPLE
     Coordinates (X,Y,Z):   0.298E+01   0.193E+01   0.188E+01
     TEMPORAL STATISTIC: TIME AVERAGE
  Property ID: TC
 121 ID: Second_Ceiling_Gas_Temperature_R2.051
     QUANTITY: THERMOCOUPLE
     Coordinates (X,Y,Z):   0.302E+01   0.193E+01   0.188E+01
     TEMPORAL STATISTIC: TIME AVERAGE
  Property ID: TC
 122 ID: Second_Ceiling_Gas_Temperature_R2.052
     QUANTITY: THERMOCOUPLE
     Coordinates (X,Y,Z):   0.308E+01   0.193E+01   0.188E+01
     TEMPORAL STATISTIC: TIME AVERAGE
  Property ID: TC
 123 ID: Second_Ceiling_Gas_Temperature_R2.053
     QUANTITY: THERMOCOUPLE
     Coordinates (X,Y,Z):   0.292E+01   0.198E+01   0.188E+01
     TEMPORAL STATISTIC: TIME AVERAGE
  Property ID: TC
 124 ID: Second_Ceiling_Gas_Temperature_R2.054
     QUANTITY: THERMOCOUPLE
     Coordinates (X,Y,Z):   0.298E+01   0.198E+01   0.188E+01
     TEMPORAL STATISTIC: TIME AVERAGE
  Property ID: TC
 125 ID: Second_Ceiling_Gas_Temperature_R2.055
     QUANTITY: THERMOCOUPLE
     Coordinates (X,Y,Z):   0.302E+01   0.198E+01   0.188E+01
     TEMPORAL STATISTIC: TIME AVERAGE
  Property ID: TC
 126 ID: Second_Ceiling_Gas_Temperature_R2.056
     QUANTITY: THERMOCOUPLE
     Coordinates (X,Y,Z):   0.308E+01   0.198E+01   0.188E+01
     TEMPORAL STATISTIC: TIME AVERAGE
  Property ID: TC
 127 ID: Second_Ceiling_Gas_Temperature_R2.057
     QUANTITY: THERMOCOUPLE
     Coordinates (X,Y,Z):   0.292E+01   0.202E+01   0.188E+01
     TEMPORAL STATISTIC: TIME AVERAGE
  Property ID: TC
 128 ID: Second_Ceiling_Gas_Temperature_R2.058
     QUANTITY: THERMOCOUPLE
     Coordinates (X,Y,Z):   0.298E+01   0.202E+01   0.188E+01
     TEMPORAL STATISTIC: TIME AVERAGE
  Property ID: TC
 129 ID: Second_Ceiling_Gas_Temperature_R2.059
     QUANTITY: THERMOCOUPLE
     Coordinates (X,Y,Z):   0.302E+01   0.202E+01   0.188E+01
     TEMPORAL STATISTIC: TIME AVERAGE
  Property ID: TC
 130 ID: Second_Ceiling_Gas_Temperature_R2.060
     QUANTITY: THERMOCOUPLE
     Coordinates (X,Y,Z):   0.308E+01   0.202E+01   0.188E+01
     TEMPORAL STATISTIC: TIME AVERAGE
  Property ID: TC
 131 ID: Second_Ceiling_Gas_Temperature_R2.061
     QUANTITY: THERMOCOUPLE
     Coordinates (X,Y,Z):   0.292E+01   0.208E+01   0.188E+01
     TEMPORAL STATISTIC: TIME AVERAGE
  Property ID: TC
 132 ID: Second_Ceiling_Gas_Temperature_R2.062
     QUANTITY: THERMOCOUPLE
     Coordinates (X,Y,Z):   0.298E+01   0.208E+01   0.188E+01
     TEMPORAL STATISTIC: TIME AVERAGE
  Property ID: TC
 133 ID: Second_Ceiling_Gas_Temperature_R2.063
     QUANTITY: THERMOCOUPLE
     Coordinates (X,Y,Z):   0.302E+01   0.208E+01   0.188E+01
     TEMPORAL STATISTIC: TIME AVERAGE
  Property ID: TC
 134 ID: Second_Ceiling_Gas_Temperature_R2.064
     QUANTITY: THERMOCOUPLE
     Coordinates (X,Y,Z):   0.308E+01   0.208E+01   0.188E+01
     TEMPORAL STATISTIC: TIME AVERAGE
  Property ID: TC
 135 ID: Third_Ceiling_Gas_Temperature_R2.001
     QUANTITY: THERMOCOUPLE
     Coordinates (X,Y,Z):   0.342E+01   0.193E+01   0.172E+01
     TEMPORAL STATISTIC: TIME AVERAGE
  Property ID: TC
 136 ID: Third_Ceiling_Gas_Temperature_R2.002
     QUANTITY: THERMOCOUPLE
     Coordinates (X,Y,Z):   0.348E+01   0.193E+01   0.172E+01
     TEMPORAL STATISTIC: TIME AVERAGE
  Property ID: TC
 137 ID: Third_Ceiling_Gas_Temperature_R2.003
     QUANTITY: THERMOCOUPLE
     Coordinates (X,Y,Z):   0.352E+01   0.193E+01   0.172E+01
     TEMPORAL STATISTIC: TIME AVERAGE
  Property ID: TC
 138 ID: Third_Ceiling_Gas_Temperature_R2.004
     QUANTITY: THERMOCOUPLE
     Coordinates (X,Y,Z):   0.358E+01   0.193E+01   0.172E+01
     TEMPORAL STATISTIC: TIME AVERAGE
  Property ID: TC
 139 ID: Third_Ceiling_Gas_Temperature_R2.005
     QUANTITY: THERMOCOUPLE
     Coordinates (X,Y,Z):   0.342E+01   0.198E+01   0.172E+01
     TEMPORAL STATISTIC: TIME AVERAGE
  Property ID: TC
 140 ID: Third_Ceiling_Gas_Temperature_R2.006
     QUANTITY: THERMOCOUPLE
     Coordinates (X,Y,Z):   0.348E+01   0.198E+01   0.172E+01
     TEMPORAL STATISTIC: TIME AVERAGE
  Property ID: TC
 141 ID: Third_Ceiling_Gas_Temperature_R2.007
     QUANTITY: THERMOCOUPLE
     Coordinates (X,Y,Z):   0.352E+01   0.198E+01   0.172E+01
     TEMPORAL STATISTIC: TIME AVERAGE
  Property ID: TC
 142 ID: Third_Ceiling_Gas_Temperature_R2.008
     QUANTITY: THERMOCOUPLE
     Coordinates (X,Y,Z):   0.358E+01   0.198E+01   0.172E+01
     TEMPORAL STATISTIC: TIME AVERAGE
  Property ID: TC
 143 ID: Third_Ceiling_Gas_Temperature_R2.009
     QUANTITY: THERMOCOUPLE
     Coordinates (X,Y,Z):   0.342E+01   0.202E+01   0.172E+01
     TEMPORAL STATISTIC: TIME AVERAGE
  Property ID: TC
 144 ID: Third_Ceiling_Gas_Temperature_R2.010
     QUANTITY: THERMOCOUPLE
     Coordinates (X,Y,Z):   0.348E+01   0.202E+01   0.172E+01
     TEMPORAL STATISTIC: TIME AVERAGE
  Property ID: TC
 145 ID: Third_Ceiling_Gas_Temperature_R2.011
     QUANTITY: THERMOCOUPLE
     Coordinates (X,Y,Z):   0.352E+01   0.202E+01   0.172E+01
     TEMPORAL STATISTIC: TIME AVERAGE
  Property ID: TC
 146 ID: Third_Ceiling_Gas_Temperature_R2.012
     QUANTITY: THERMOCOUPLE
     Coordinates (X,Y,Z):   0.358E+01   0.202E+01   0.172E+01
     TEMPORAL STATISTIC: TIME AVERAGE
  Property ID: TC
 147 ID: Third_Ceiling_Gas_Temperature_R2.013
     QUANTITY: THERMOCOUPLE
     Coordinates (X,Y,Z):   0.342E+01   0.208E+01   0.172E+01
     TEMPORAL STATISTIC: TIME AVERAGE
  Property ID: TC
 148 ID: Third_Ceiling_Gas_Temperature_R2.014
     QUANTITY: THERMOCOUPLE
     Coordinates (X,Y,Z):   0.348E+01   0.208E+01   0.172E+01
     TEMPORAL STATISTIC: TIME AVERAGE
  Property ID: TC
 149 ID: Third_Ceiling_Gas_Temperature_R2.015
     QUANTITY: THERMOCOUPLE
     Coordinates (X,Y,Z):   0.352E+01   0.208E+01   0.172E+01
     TEMPORAL STATISTIC: TIME AVERAGE
  Property ID: TC
 150 ID: Third_Ceiling_Gas_Temperature_R2.016
     QUANTITY: THERMOCOUPLE
     Coordinates (X,Y,Z):   0.358E+01   0.208E+01   0.172E+01
     TEMPORAL STATISTIC: TIME AVERAGE
  Property ID: TC
 151 ID: Third_Ceiling_Gas_Temperature_R2.017
     QUANTITY: THERMOCOUPLE
     Coordinates (X,Y,Z):   0.342E+01   0.193E+01   0.177E+01
     TEMPORAL STATISTIC: TIME AVERAGE
  Property ID: TC
 152 ID: Third_Ceiling_Gas_Temperature_R2.018
     QUANTITY: THERMOCOUPLE
     Coordinates (X,Y,Z):   0.348E+01   0.193E+01   0.177E+01
     TEMPORAL STATISTIC: TIME AVERAGE
  Property ID: TC
 153 ID: Third_Ceiling_Gas_Temperature_R2.019
     QUANTITY: THERMOCOUPLE
     Coordinates (X,Y,Z):   0.352E+01   0.193E+01   0.177E+01
     TEMPORAL STATISTIC: TIME AVERAGE
  Property ID: TC
 154 ID: Third_Ceiling_Gas_Temperature_R2.020
     QUANTITY: THERMOCOUPLE
     Coordinates (X,Y,Z):   0.358E+01   0.193E+01   0.177E+01
     TEMPORAL STATISTIC: TIME AVERAGE
  Property ID: TC
 155 ID: Third_Ceiling_Gas_Temperature_R2.021
     QUANTITY: THERMOCOUPLE
     Coordinates (X,Y,Z):   0.342E+01   0.198E+01   0.177E+01
     TEMPORAL STATISTIC: TIME AVERAGE
  Property ID: TC
 156 ID: Third_Ceiling_Gas_Temperature_R2.022
     QUANTITY: THERMOCOUPLE
     Coordinates (X,Y,Z):   0.348E+01   0.198E+01   0.177E+01
     TEMPORAL STATISTIC: TIME AVERAGE
  Property ID: TC
 157 ID: Third_Ceiling_Gas_Temperature_R2.023
     QUANTITY: THERMOCOUPLE
     Coordinates (X,Y,Z):   0.352E+01   0.198E+01   0.177E+01
     TEMPORAL STATISTIC: TIME AVERAGE
  Property ID: TC
 158 ID: Third_Ceiling_Gas_Temperature_R2.024
     QUANTITY: THERMOCOUPLE
     Coordinates (X,Y,Z):   0.358E+01   0.198E+01   0.177E+01
     TEMPORAL STATISTIC: TIME AVERAGE
  Property ID: TC
 159 ID: Third_Ceiling_Gas_Temperature_R2.025
     QUANTITY: THERMOCOUPLE
     Coordinates (X,Y,Z):   0.342E+01   0.202E+01   0.177E+01
     TEMPORAL STATISTIC: TIME AVERAGE
  Property ID: TC
 160 ID: Third_Ceiling_Gas_Temperature_R2.026
     QUANTITY: THERMOCOUPLE
     Coordinates (X,Y,Z):   0.348E+01   0.202E+01   0.177E+01
     TEMPORAL STATISTIC: TIME AVERAGE
  Property ID: TC
 161 ID: Third_Ceiling_Gas_Temperature_R2.027
     QUANTITY: THERMOCOUPLE
     Coordinates (X,Y,Z):   0.352E+01   0.202E+01   0.177E+01
     TEMPORAL STATISTIC: TIME AVERAGE
  Property ID: TC
 162 ID: Third_Ceiling_Gas_Temperature_R2.028
     QUANTITY: THERMOCOUPLE
     Coordinates (X,Y,Z):   0.358E+01   0.202E+01   0.177E+01
     TEMPORAL STATISTIC: TIME AVERAGE
  Property ID: TC
 163 ID: Third_Ceiling_Gas_Temperature_R2.029
     QUANTITY: THERMOCOUPLE
     Coordinates (X,Y,Z):   0.342E+01   0.208E+01   0.177E+01
     TEMPORAL STATISTIC: TIME AVERAGE
  Property ID: TC
 164 ID: Third_Ceiling_Gas_Temperature_R2.030
     QUANTITY: THERMOCOUPLE
     Coordinates (X,Y,Z):   0.348E+01   0.208E+01   0.177E+01
     TEMPORAL STATISTIC: TIME AVERAGE
  Property ID: TC
 165 ID: Third_Ceiling_Gas_Temperature_R2.031
     QUANTITY: THERMOCOUPLE
     Coordinates (X,Y,Z):   0.352E+01   0.208E+01   0.177E+01
     TEMPORAL STATISTIC: TIME AVERAGE
  Property ID: TC
 166 ID: Third_Ceiling_Gas_Temperature_R2.032
     QUANTITY: THERMOCOUPLE
     Coordinates (X,Y,Z):   0.358E+01   0.208E+01   0.177E+01
     TEMPORAL STATISTIC: TIME AVERAGE
  Property ID: TC
 167 ID: Third_Ceiling_Gas_Temperature_R2.033
     QUANTITY: THERMOCOUPLE
     Coordinates (X,Y,Z):   0.342E+01   0.193E+01   0.182E+01
     TEMPORAL STATISTIC: TIME AVERAGE
  Property ID: TC
 168 ID: Third_Ceiling_Gas_Temperature_R2.034
     QUANTITY: THERMOCOUPLE
     Coordinates (X,Y,Z):   0.348E+01   0.193E+01   0.182E+01
     TEMPORAL STATISTIC: TIME AVERAGE
  Property ID: TC
 169 ID: Third_Ceiling_Gas_Temperature_R2.035
     QUANTITY: THERMOCOUPLE
     Coordinates (X,Y,Z):   0.352E+01   0.193E+01   0.182E+01
     TEMPORAL STATISTIC: TIME AVERAGE
  Property ID: TC
 170 ID: Third_Ceiling_Gas_Temperature_R2.036
     QUANTITY: THERMOCOUPLE
     Coordinates (X,Y,Z):   0.358E+01   0.193E+01   0.182E+01
     TEMPORAL STATISTIC: TIME AVERAGE
  Property ID: TC
 171 ID: Third_Ceiling_Gas_Temperature_R2.037
     QUANTITY: THERMOCOUPLE
     Coordinates (X,Y,Z):   0.342E+01   0.198E+01   0.182E+01
     TEMPORAL STATISTIC: TIME AVERAGE
  Property ID: TC
 172 ID: Third_Ceiling_Gas_Temperature_R2.038
     QUANTITY: THERMOCOUPLE
     Coordinates (X,Y,Z):   0.348E+01   0.198E+01   0.182E+01
     TEMPORAL STATISTIC: TIME AVERAGE
  Property ID: TC
 173 ID: Third_Ceiling_Gas_Temperature_R2.039
     QUANTITY: THERMOCOUPLE
     Coordinates (X,Y,Z):   0.352E+01   0.198E+01   0.182E+01
     TEMPORAL STATISTIC: TIME AVERAGE
  Property ID: TC
 174 ID: Third_Ceiling_Gas_Temperature_R2.040
     QUANTITY: THERMOCOUPLE
     Coordinates (X,Y,Z):   0.358E+01   0.198E+01   0.182E+01
     TEMPORAL STATISTIC: TIME AVERAGE
  Property ID: TC
 175 ID: Third_Ceiling_Gas_Temperature_R2.041
     QUANTITY: THERMOCOUPLE
     Coordinates (X,Y,Z):   0.342E+01   0.202E+01   0.182E+01
     TEMPORAL STATISTIC: TIME AVERAGE
  Property ID: TC
 176 ID: Third_Ceiling_Gas_Temperature_R2.042
     QUANTITY: THERMOCOUPLE
     Coordinates (X,Y,Z):   0.348E+01   0.202E+01   0.182E+01
     TEMPORAL STATISTIC: TIME AVERAGE
  Property ID: TC
 177 ID: Third_Ceiling_Gas_Temperature_R2.043
     QUANTITY: THERMOCOUPLE
     Coordinates (X,Y,Z):   0.352E+01   0.202E+01   0.182E+01
     TEMPORAL STATISTIC: TIME AVERAGE
  Property ID: TC
 178 ID: Third_Ceiling_Gas_Temperature_R2.044
     QUANTITY: THERMOCOUPLE
     Coordinates (X,Y,Z):   0.358E+01   0.202E+01   0.182E+01
     TEMPORAL STATISTIC: TIME AVERAGE
  Property ID: TC
 179 ID: Third_Ceiling_Gas_Temperature_R2.045
     QUANTITY: THERMOCOUPLE
     Coordinates (X,Y,Z):   0.342E+01   0.208E+01   0.182E+01
     TEMPORAL STATISTIC: TIME AVERAGE
  Property ID: TC
 180 ID: Third_Ceiling_Gas_Temperature_R2.046
     QUANTITY: THERMOCOUPLE
     Coordinates (X,Y,Z):   0.348E+01   0.208E+01   0.182E+01
     TEMPORAL STATISTIC: TIME AVERAGE
  Property ID: TC
 181 ID: Third_Ceiling_Gas_Temperature_R2.047
     QUANTITY: THERMOCOUPLE
     Coordinates (X,Y,Z):   0.352E+01   0.208E+01   0.182E+01
     TEMPORAL STATISTIC: TIME AVERAGE
  Property ID: TC
 182 ID: Third_Ceiling_Gas_Temperature_R2.048
     QUANTITY: THERMOCOUPLE
     Coordinates (X,Y,Z):   0.358E+01   0.208E+01   0.182E+01
     TEMPORAL STATISTIC: TIME AVERAGE
  Property ID: TC
 183 ID: Third_Ceiling_Gas_Temperature_R2.049
     QUANTITY: THERMOCOUPLE
     Coordinates (X,Y,Z):   0.342E+01   0.193E+01   0.188E+01
     TEMPORAL STATISTIC: TIME AVERAGE
  Property ID: TC
 184 ID: Third_Ceiling_Gas_Temperature_R2.050
     QUANTITY: THERMOCOUPLE
     Coordinates (X,Y,Z):   0.348E+01   0.193E+01   0.188E+01
     TEMPORAL STATISTIC: TIME AVERAGE
  Property ID: TC
 185 ID: Third_Ceiling_Gas_Temperature_R2.051
     QUANTITY: THERMOCOUPLE
     Coordinates (X,Y,Z):   0.352E+01   0.193E+01   0.188E+01
     TEMPORAL STATISTIC: TIME AVERAGE
  Property ID: TC
 186 ID: Third_Ceiling_Gas_Temperature_R2.052
     QUANTITY: THERMOCOUPLE
     Coordinates (X,Y,Z):   0.358E+01   0.193E+01   0.188E+01
     TEMPORAL STATISTIC: TIME AVERAGE
  Property ID: TC
 187 ID: Third_Ceiling_Gas_Temperature_R2.053
     QUANTITY: THERMOCOUPLE
     Coordinates (X,Y,Z):   0.342E+01   0.198E+01   0.188E+01
     TEMPORAL STATISTIC: TIME AVERAGE
  Property ID: TC
 188 ID: Third_Ceiling_Gas_Temperature_R2.054
     QUANTITY: THERMOCOUPLE
     Coordinates (X,Y,Z):   0.348E+01   0.198E+01   0.188E+01
     TEMPORAL STATISTIC: TIME AVERAGE
  Property ID: TC
 189 ID: Third_Ceiling_Gas_Temperature_R2.055
     QUANTITY: THERMOCOUPLE
     Coordinates (X,Y,Z):   0.352E+01   0.198E+01   0.188E+01
     TEMPORAL STATISTIC: TIME AVERAGE
  Property ID: TC
 190 ID: Third_Ceiling_Gas_Temperature_R2.056
     QUANTITY: THERMOCOUPLE
     Coordinates (X,Y,Z):   0.358E+01   0.198E+01   0.188E+01
     TEMPORAL STATISTIC: TIME AVERAGE
  Property ID: TC
 191 ID: Third_Ceiling_Gas_Temperature_R2.057
     QUANTITY: THERMOCOUPLE
     Coordinates (X,Y,Z):   0.342E+01   0.202E+01   0.188E+01
     TEMPORAL STATISTIC: TIME AVERAGE
  Property ID: TC
 192 ID: Third_Ceiling_Gas_Temperature_R2.058
     QUANTITY: THERMOCOUPLE
     Coordinates (X,Y,Z):   0.348E+01   0.202E+01   0.188E+01
     TEMPORAL STATISTIC: TIME AVERAGE
  Property ID: TC
 193 ID: Third_Ceiling_Gas_Temperature_R2.059
     QUANTITY: THERMOCOUPLE
     Coordinates (X,Y,Z):   0.352E+01   0.202E+01   0.188E+01
     TEMPORAL STATISTIC: TIME AVERAGE
  Property ID: TC
 194 ID: Third_Ceiling_Gas_Temperature_R2.060
     QUANTITY: THERMOCOUPLE
     Coordinates (X,Y,Z):   0.358E+01   0.202E+01   0.188E+01
     TEMPORAL STATISTIC: TIME AVERAGE
  Property ID: TC
 195 ID: Third_Ceiling_Gas_Temperature_R2.061
     QUANTITY: THERMOCOUPLE
     Coordinates (X,Y,Z):   0.342E+01   0.208E+01   0.188E+01
     TEMPORAL STATISTIC: TIME AVERAGE
  Property ID: TC
 196 ID: Third_Ceiling_Gas_Temperature_R2.062
     QUANTITY: THERMOCOUPLE
     Coordinates (X,Y,Z):   0.348E+01   0.208E+01   0.188E+01
     TEMPORAL STATISTIC: TIME AVERAGE
  Property ID: TC
 197 ID: Third_Ceiling_Gas_Temperature_R2.063
     QUANTITY: THERMOCOUPLE
     Coordinates (X,Y,Z):   0.352E+01   0.208E+01   0.188E+01
     TEMPORAL STATISTIC: TIME AVERAGE
  Property ID: TC
 198 ID: Third_Ceiling_Gas_Temperature_R2.064
     QUANTITY: THERMOCOUPLE
     Coordinates (X,Y,Z):   0.358E+01   0.208E+01   0.188E+01
     TEMPORAL STATISTIC: TIME AVERAGE
  Property ID: TC
 199 ID: Fourth_Ceiling_Gas_Temperature_R2.001
     QUANTITY: THERMOCOUPLE
     Coordinates (X,Y,Z):   0.373E+01   0.193E+01   0.172E+01
     TEMPORAL STATISTIC: TIME AVERAGE
  Property ID: TC
 200 ID: Fourth_Ceiling_Gas_Temperature_R2.002
     QUANTITY: THERMOCOUPLE
     Coordinates (X,Y,Z):   0.377E+01   0.193E+01   0.172E+01
     TEMPORAL STATISTIC: TIME AVERAGE
  Property ID: TC
 201 ID: Fourth_Ceiling_Gas_Temperature_R2.003
     QUANTITY: THERMOCOUPLE
     Coordinates (X,Y,Z):   0.383E+01   0.193E+01   0.172E+01
     TEMPORAL STATISTIC: TIME AVERAGE
  Property ID: TC
 202 ID: Fourth_Ceiling_Gas_Temperature_R2.004
     QUANTITY: THERMOCOUPLE
     Coordinates (X,Y,Z):   0.388E+01   0.193E+01   0.172E+01
     TEMPORAL STATISTIC: TIME AVERAGE
  Property ID: TC
 203 ID: Fourth_Ceiling_Gas_Temperature_R2.005
     QUANTITY: THERMOCOUPLE
     Coordinates (X,Y,Z):   0.373E+01   0.198E+01   0.172E+01
     TEMPORAL STATISTIC: TIME AVERAGE
  Property ID: TC
 204 ID: Fourth_Ceiling_Gas_Temperature_R2.006
     QUANTITY: THERMOCOUPLE
     Coordinates (X,Y,Z):   0.377E+01   0.198E+01   0.172E+01
     TEMPORAL STATISTIC: TIME AVERAGE
  Property ID: TC
 205 ID: Fourth_Ceiling_Gas_Temperature_R2.007
     QUANTITY: THERMOCOUPLE
     Coordinates (X,Y,Z):   0.383E+01   0.198E+01   0.172E+01
     TEMPORAL STATISTIC: TIME AVERAGE
  Property ID: TC
 206 ID: Fourth_Ceiling_Gas_Temperature_R2.008
     QUANTITY: THERMOCOUPLE
     Coordinates (X,Y,Z):   0.388E+01   0.198E+01   0.172E+01
     TEMPORAL STATISTIC: TIME AVERAGE
  Property ID: TC
 207 ID: Fourth_Ceiling_Gas_Temperature_R2.009
     QUANTITY: THERMOCOUPLE
     Coordinates (X,Y,Z):   0.373E+01   0.202E+01   0.172E+01
     TEMPORAL STATISTIC: TIME AVERAGE
  Property ID: TC
 208 ID: Fourth_Ceiling_Gas_Temperature_R2.010
     QUANTITY: THERMOCOUPLE
     Coordinates (X,Y,Z):   0.377E+01   0.202E+01   0.172E+01
     TEMPORAL STATISTIC: TIME AVERAGE
  Property ID: TC
 209 ID: Fourth_Ceiling_Gas_Temperature_R2.011
     QUANTITY: THERMOCOUPLE
     Coordinates (X,Y,Z):   0.383E+01   0.202E+01   0.172E+01
     TEMPORAL STATISTIC: TIME AVERAGE
  Property ID: TC
 210 ID: Fourth_Ceiling_Gas_Temperature_R2.012
     QUANTITY: THERMOCOUPLE
     Coordinates (X,Y,Z):   0.388E+01   0.202E+01   0.172E+01
     TEMPORAL STATISTIC: TIME AVERAGE
  Property ID: TC
 211 ID: Fourth_Ceiling_Gas_Temperature_R2.013
     QUANTITY: THERMOCOUPLE
     Coordinates (X,Y,Z):   0.373E+01   0.208E+01   0.172E+01
     TEMPORAL STATISTIC: TIME AVERAGE
  Property ID: TC
 212 ID: Fourth_Ceiling_Gas_Temperature_R2.014
     QUANTITY: THERMOCOUPLE
     Coordinates (X,Y,Z):   0.377E+01   0.208E+01   0.172E+01
     TEMPORAL STATISTIC: TIME AVERAGE
  Property ID: TC
 213 ID: Fourth_Ceiling_Gas_Temperature_R2.015
     QUANTITY: THERMOCOUPLE
     Coordinates (X,Y,Z):   0.383E+01   0.208E+01   0.172E+01
     TEMPORAL STATISTIC: TIME AVERAGE
  Property ID: TC
 214 ID: Fourth_Ceiling_Gas_Temperature_R2.016
     QUANTITY: THERMOCOUPLE
     Coordinates (X,Y,Z):   0.388E+01   0.208E+01   0.172E+01
     TEMPORAL STATISTIC: TIME AVERAGE
  Property ID: TC
 215 ID: Fourth_Ceiling_Gas_Temperature_R2.017
     QUANTITY: THERMOCOUPLE
     Coordinates (X,Y,Z):   0.373E+01   0.193E+01   0.177E+01
     TEMPORAL STATISTIC: TIME AVERAGE
  Property ID: TC
 216 ID: Fourth_Ceiling_Gas_Temperature_R2.018
     QUANTITY: THERMOCOUPLE
     Coordinates (X,Y,Z):   0.377E+01   0.193E+01   0.177E+01
     TEMPORAL STATISTIC: TIME AVERAGE
  Property ID: TC
 217 ID: Fourth_Ceiling_Gas_Temperature_R2.019
     QUANTITY: THERMOCOUPLE
     Coordinates (X,Y,Z):   0.383E+01   0.193E+01   0.177E+01
     TEMPORAL STATISTIC: TIME AVERAGE
  Property ID: TC
 218 ID: Fourth_Ceiling_Gas_Temperature_R2.020
     QUANTITY: THERMOCOUPLE
     Coordinates (X,Y,Z):   0.388E+01   0.193E+01   0.177E+01
     TEMPORAL STATISTIC: TIME AVERAGE
  Property ID: TC
 219 ID: Fourth_Ceiling_Gas_Temperature_R2.021
     QUANTITY: THERMOCOUPLE
     Coordinates (X,Y,Z):   0.373E+01   0.198E+01   0.177E+01
     TEMPORAL STATISTIC: TIME AVERAGE
  Property ID: TC
 220 ID: Fourth_Ceiling_Gas_Temperature_R2.022
     QUANTITY: THERMOCOUPLE
     Coordinates (X,Y,Z):   0.377E+01   0.198E+01   0.177E+01
     TEMPORAL STATISTIC: TIME AVERAGE
  Property ID: TC
 221 ID: Fourth_Ceiling_Gas_Temperature_R2.023
     QUANTITY: THERMOCOUPLE
     Coordinates (X,Y,Z):   0.383E+01   0.198E+01   0.177E+01
     TEMPORAL STATISTIC: TIME AVERAGE
  Property ID: TC
 222 ID: Fourth_Ceiling_Gas_Temperature_R2.024
     QUANTITY: THERMOCOUPLE
     Coordinates (X,Y,Z):   0.388E+01   0.198E+01   0.177E+01
     TEMPORAL STATISTIC: TIME AVERAGE
  Property ID: TC
 223 ID: Fourth_Ceiling_Gas_Temperature_R2.025
     QUANTITY: THERMOCOUPLE
     Coordinates (X,Y,Z):   0.373E+01   0.202E+01   0.177E+01
     TEMPORAL STATISTIC: TIME AVERAGE
  Property ID: TC
 224 ID: Fourth_Ceiling_Gas_Temperature_R2.026
     QUANTITY: THERMOCOUPLE
     Coordinates (X,Y,Z):   0.377E+01   0.202E+01   0.177E+01
     TEMPORAL STATISTIC: TIME AVERAGE
  Property ID: TC
 225 ID: Fourth_Ceiling_Gas_Temperature_R2.027
     QUANTITY: THERMOCOUPLE
     Coordinates (X,Y,Z):   0.383E+01   0.202E+01   0.177E+01
     TEMPORAL STATISTIC: TIME AVERAGE
  Property ID: TC
 226 ID: Fourth_Ceiling_Gas_Temperature_R2.028
     QUANTITY: THERMOCOUPLE
     Coordinates (X,Y,Z):   0.388E+01   0.202E+01   0.177E+01
     TEMPORAL STATISTIC: TIME AVERAGE
  Property ID: TC
 227 ID: Fourth_Ceiling_Gas_Temperature_R2.029
     QUANTITY: THERMOCOUPLE
     Coordinates (X,Y,Z):   0.373E+01   0.208E+01   0.177E+01
     TEMPORAL STATISTIC: TIME AVERAGE
  Property ID: TC
 228 ID: Fourth_Ceiling_Gas_Temperature_R2.030
     QUANTITY: THERMOCOUPLE
     Coordinates (X,Y,Z):   0.377E+01   0.208E+01   0.177E+01
     TEMPORAL STATISTIC: TIME AVERAGE
  Property ID: TC
 229 ID: Fourth_Ceiling_Gas_Temperature_R2.031
     QUANTITY: THERMOCOUPLE
     Coordinates (X,Y,Z):   0.383E+01   0.208E+01   0.177E+01
     TEMPORAL STATISTIC: TIME AVERAGE
  Property ID: TC
 230 ID: Fourth_Ceiling_Gas_Temperature_R2.032
     QUANTITY: THERMOCOUPLE
     Coordinates (X,Y,Z):   0.388E+01   0.208E+01   0.177E+01
     TEMPORAL STATISTIC: TIME AVERAGE
  Property ID: TC
 231 ID: Fourth_Ceiling_Gas_Temperature_R2.033
     QUANTITY: THERMOCOUPLE
     Coordinates (X,Y,Z):   0.373E+01   0.193E+01   0.182E+01
     TEMPORAL STATISTIC: TIME AVERAGE
  Property ID: TC
 232 ID: Fourth_Ceiling_Gas_Temperature_R2.034
     QUANTITY: THERMOCOUPLE
     Coordinates (X,Y,Z):   0.377E+01   0.193E+01   0.182E+01
     TEMPORAL STATISTIC: TIME AVERAGE
  Property ID: TC
 233 ID: Fourth_Ceiling_Gas_Temperature_R2.035
     QUANTITY: THERMOCOUPLE
     Coordinates (X,Y,Z):   0.383E+01   0.193E+01   0.182E+01
     TEMPORAL STATISTIC: TIME AVERAGE
  Property ID: TC
 234 ID: Fourth_Ceiling_Gas_Temperature_R2.036
     QUANTITY: THERMOCOUPLE
     Coordinates (X,Y,Z):   0.388E+01   0.193E+01   0.182E+01
     TEMPORAL STATISTIC: TIME AVERAGE
  Property ID: TC
 235 ID: Fourth_Ceiling_Gas_Temperature_R2.037
     QUANTITY: THERMOCOUPLE
     Coordinates (X,Y,Z):   0.373E+01   0.198E+01   0.182E+01
     TEMPORAL STATISTIC: TIME AVERAGE
  Property ID: TC
 236 ID: Fourth_Ceiling_Gas_Temperature_R2.038
     QUANTITY: THERMOCOUPLE
     Coordinates (X,Y,Z):   0.377E+01   0.198E+01   0.182E+01
     TEMPORAL STATISTIC: TIME AVERAGE
  Property ID: TC
 237 ID: Fourth_Ceiling_Gas_Temperature_R2.039
     QUANTITY: THERMOCOUPLE
     Coordinates (X,Y,Z):   0.383E+01   0.198E+01   0.182E+01
     TEMPORAL STATISTIC: TIME AVERAGE
  Property ID: TC
 238 ID: Fourth_Ceiling_Gas_Temperature_R2.040
     QUANTITY: THERMOCOUPLE
     Coordinates (X,Y,Z):   0.388E+01   0.198E+01   0.182E+01
     TEMPORAL STATISTIC: TIME AVERAGE
  Property ID: TC
 239 ID: Fourth_Ceiling_Gas_Temperature_R2.041
     QUANTITY: THERMOCOUPLE
     Coordinates (X,Y,Z):   0.373E+01   0.202E+01   0.182E+01
     TEMPORAL STATISTIC: TIME AVERAGE
  Property ID: TC
 240 ID: Fourth_Ceiling_Gas_Temperature_R2.042
     QUANTITY: THERMOCOUPLE
     Coordinates (X,Y,Z):   0.377E+01   0.202E+01   0.182E+01
     TEMPORAL STATISTIC: TIME AVERAGE
  Property ID: TC
 241 ID: Fourth_Ceiling_Gas_Temperature_R2.043
     QUANTITY: THERMOCOUPLE
     Coordinates (X,Y,Z):   0.383E+01   0.202E+01   0.182E+01
     TEMPORAL STATISTIC: TIME AVERAGE
  Property ID: TC
 242 ID: Fourth_Ceiling_Gas_Temperature_R2.044
     QUANTITY: THERMOCOUPLE
     Coordinates (X,Y,Z):   0.388E+01   0.202E+01   0.182E+01
     TEMPORAL STATISTIC: TIME AVERAGE
  Property ID: TC
 243 ID: Fourth_Ceiling_Gas_Temperature_R2.045
     QUANTITY: THERMOCOUPLE
     Coordinates (X,Y,Z):   0.373E+01   0.208E+01   0.182E+01
     TEMPORAL STATISTIC: TIME AVERAGE
  Property ID: TC
 244 ID: Fourth_Ceiling_Gas_Temperature_R2.046
     QUANTITY: THERMOCOUPLE
     Coordinates (X,Y,Z):   0.377E+01   0.208E+01   0.182E+01
     TEMPORAL STATISTIC: TIME AVERAGE
  Property ID: TC
 245 ID: Fourth_Ceiling_Gas_Temperature_R2.047
     QUANTITY: THERMOCOUPLE
     Coordinates (X,Y,Z):   0.383E+01   0.208E+01   0.182E+01
     TEMPORAL STATISTIC: TIME AVERAGE
  Property ID: TC
 246 ID: Fourth_Ceiling_Gas_Temperature_R2.048
     QUANTITY: THERMOCOUPLE
     Coordinates (X,Y,Z):   0.388E+01   0.208E+01   0.182E+01
     TEMPORAL STATISTIC: TIME AVERAGE
  Property ID: TC
 247 ID: Fourth_Ceiling_Gas_Temperature_R2.049
     QUANTITY: THERMOCOUPLE
     Coordinates (X,Y,Z):   0.373E+01   0.193E+01   0.188E+01
     TEMPORAL STATISTIC: TIME AVERAGE
  Property ID: TC
 248 ID: Fourth_Ceiling_Gas_Temperature_R2.050
     QUANTITY: THERMOCOUPLE
     Coordinates (X,Y,Z):   0.377E+01   0.193E+01   0.188E+01
     TEMPORAL STATISTIC: TIME AVERAGE
  Property ID: TC
 249 ID: Fourth_Ceiling_Gas_Temperature_R2.051
     QUANTITY: THERMOCOUPLE
     Coordinates (X,Y,Z):   0.383E+01   0.193E+01   0.188E+01
     TEMPORAL STATISTIC: TIME AVERAGE
  Property ID: TC
 250 ID: Fourth_Ceiling_Gas_Temperature_R2.052
     QUANTITY: THERMOCOUPLE
     Coordinates (X,Y,Z):   0.388E+01   0.193E+01   0.188E+01
     TEMPORAL STATISTIC: TIME AVERAGE
  Property ID: TC
 251 ID: Fourth_Ceiling_Gas_Temperature_R2.053
     QUANTITY: THERMOCOUPLE
     Coordinates (X,Y,Z):   0.373E+01   0.198E+01   0.188E+01
     TEMPORAL STATISTIC: TIME AVERAGE
  Property ID: TC
 252 ID: Fourth_Ceiling_Gas_Temperature_R2.054
     QUANTITY: THERMOCOUPLE
     Coordinates (X,Y,Z):   0.377E+01   0.198E+01   0.188E+01
     TEMPORAL STATISTIC: TIME AVERAGE
  Property ID: TC
 253 ID: Fourth_Ceiling_Gas_Temperature_R2.055
     QUANTITY: THERMOCOUPLE
     Coordinates (X,Y,Z):   0.383E+01   0.198E+01   0.188E+01
     TEMPORAL STATISTIC: TIME AVERAGE
  Property ID: TC
 254 ID: Fourth_Ceiling_Gas_Temperature_R2.056
     QUANTITY: THERMOCOUPLE
     Coordinates (X,Y,Z):   0.388E+01   0.198E+01   0.188E+01
     TEMPORAL STATISTIC: TIME AVERAGE
  Property ID: TC
 255 ID: Fourth_Ceiling_Gas_Temperature_R2.057
     QUANTITY: THERMOCOUPLE
     Coordinates (X,Y,Z):   0.373E+01   0.202E+01   0.188E+01
     TEMPORAL STATISTIC: TIME AVERAGE
  Property ID: TC
 256 ID: Fourth_Ceiling_Gas_Temperature_R2.058
     QUANTITY: THERMOCOUPLE
     Coordinates (X,Y,Z):   0.377E+01   0.202E+01   0.188E+01
     TEMPORAL STATISTIC: TIME AVERAGE
  Property ID: TC
 257 ID: Fourth_Ceiling_Gas_Temperature_R2.059
     QUANTITY: THERMOCOUPLE
     Coordinates (X,Y,Z):   0.383E+01   0.202E+01   0.188E+01
     TEMPORAL STATISTIC: TIME AVERAGE
  Property ID: TC
 258 ID: Fourth_Ceiling_Gas_Temperature_R2.060
     QUANTITY: THERMOCOUPLE
     Coordinates (X,Y,Z):   0.388E+01   0.202E+01   0.188E+01
     TEMPORAL STATISTIC: TIME AVERAGE
  Property ID: TC
 259 ID: Fourth_Ceiling_Gas_Temperature_R2.061
     QUANTITY: THERMOCOUPLE
     Coordinates (X,Y,Z):   0.373E+01   0.208E+01   0.188E+01
     TEMPORAL STATISTIC: TIME AVERAGE
  Property ID: TC
 260 ID: Fourth_Ceiling_Gas_Temperature_R2.062
     QUANTITY: THERMOCOUPLE
     Coordinates (X,Y,Z):   0.377E+01   0.208E+01   0.188E+01
     TEMPORAL STATISTIC: TIME AVERAGE
  Property ID: TC
 261 ID: Fourth_Ceiling_Gas_Temperature_R2.063
     QUANTITY: THERMOCOUPLE
     Coordinates (X,Y,Z):   0.383E+01   0.208E+01   0.188E+01
     TEMPORAL STATISTIC: TIME AVERAGE
  Property ID: TC
 262 ID: Fourth_Ceiling_Gas_Temperature_R2.064
     QUANTITY: THERMOCOUPLE
     Coordinates (X,Y,Z):   0.388E+01   0.208E+01   0.188E+01
     TEMPORAL STATISTIC: TIME AVERAGE
  Property ID: TC
 263 ID: 0.5_TREE1_TEMPERATURE_THERMOCOUPLE
     QUANTITY: TEMPERATURE
     Coordinates (X,Y,Z):   0.300E+01   0.200E+01   0.500E+00
     TEMPORAL STATISTIC: TIME AVERAGE
 264 ID: 0.5_TREE1_THERMOCOUPLE
     QUANTITY: THERMOCOUPLE
     Coordinates (X,Y,Z):   0.300E+01   0.200E+01   0.500E+00
     TEMPORAL STATISTIC: TIME AVERAGE
 265 ID: 0.7_TREE1_TEMPERATURE_THERMOCOUPLE
     QUANTITY: TEMPERATURE
     Coordinates (X,Y,Z):   0.300E+01   0.200E+01   0.700E+00
     TEMPORAL STATISTIC: TIME AVERAGE
 266 ID: 0.7_TREE1_THERMOCOUPLE
     QUANTITY: THERMOCOUPLE
     Coordinates (X,Y,Z):   0.300E+01   0.200E+01   0.700E+00
     TEMPORAL STATISTIC: TIME AVERAGE
 267 ID: 0.9_TREE1_TEMPERATURE_THERMOCOUPLE
     QUANTITY: TEMPERATURE
     Coordinates (X,Y,Z):   0.300E+01   0.200E+01   0.900E+00
     TEMPORAL STATISTIC: TIME AVERAGE
 268 ID: 0.9_TREE1_THERMOCOUPLE
     QUANTITY: THERMOCOUPLE
     Coordinates (X,Y,Z):   0.300E+01   0.200E+01   0.900E+00
     TEMPORAL STATISTIC: TIME AVERAGE
 269 ID: 1.2_TREE1_TEMPERATURE_THERMOCOUPLE
     QUANTITY: TEMPERATURE
     Coordinates (X,Y,Z):   0.300E+01   0.200E+01   0.120E+01
     TEMPORAL STATISTIC: TIME AVERAGE
 270 ID: 1.2_TREE1_THERMOCOUPLE
     QUANTITY: THERMOCOUPLE
     Coordinates (X,Y,Z):   0.300E+01   0.200E+01   0.120E+01
     TEMPORAL STATISTIC: TIME AVERAGE
 271 ID: 1.5_TREE1_TEMPERATURE_THERMOCOUPLE
     QUANTITY: TEMPERATURE
     Coordinates (X,Y,Z):   0.300E+01   0.200E+01   0.150E+01
     TEMPORAL STATISTIC: TIME AVERAGE
 272 ID: 1.5_TREE1_THERMOCOUPLE
     QUANTITY: THERMOCOUPLE
     Coordinates (X,Y,Z):   0.300E+01   0.200E+01   0.150E+01
     TEMPORAL STATISTIC: TIME AVERAGE
 273 ID: 0.5_TREE2_TEMPERATURE_THERMOCOUPLE
     QUANTITY: TEMPERATURE
     Coordinates (X,Y,Z):   0.380E+01   0.200E+01   0.500E+00
     TEMPORAL STATISTIC: TIME AVERAGE
 274 ID: 0.5_TREE2_THERMOCOUPLE
     QUANTITY: THERMOCOUPLE
     Coordinates (X,Y,Z):   0.380E+01   0.200E+01   0.500E+00
     TEMPORAL STATISTIC: TIME AVERAGE
 275 ID: 0.7_TREE2_TEMPERATURE_THERMOCOUPLE
     QUANTITY: TEMPERATURE
     Coordinates (X,Y,Z):   0.380E+01   0.200E+01   0.700E+00
     TEMPORAL STATISTIC: TIME AVERAGE
 276 ID: 0.7_TREE2_THERMOCOUPLE
     QUANTITY: THERMOCOUPLE
     Coordinates (X,Y,Z):   0.380E+01   0.200E+01   0.700E+00
     TEMPORAL STATISTIC: TIME AVERAGE
 277 ID: 0.9_TREE2_TEMPERATURE_THERMOCOUPLE
     QUANTITY: TEMPERATURE
     Coordinates (X,Y,Z):   0.380E+01   0.200E+01   0.900E+00
     TEMPORAL STATISTIC: TIME AVERAGE
 278 ID: 0.9_TREE2_THERMOCOUPLE
     QUANTITY: THERMOCOUPLE
     Coordinates (X,Y,Z):   0.380E+01   0.200E+01   0.900E+00
     TEMPORAL STATISTIC: TIME AVERAGE
 279 ID: 1.2_TREE2_TEMPERATURE_THERMOCOUPLE
     QUANTITY: TEMPERATURE
     Coordinates (X,Y,Z):   0.380E+01   0.200E+01   0.120E+01
     TEMPORAL STATISTIC: TIME AVERAGE
 280 ID: 1.2_TREE2_THERMOCOUPLE
     QUANTITY: THERMOCOUPLE
     Coordinates (X,Y,Z):   0.380E+01   0.200E+01   0.120E+01
     TEMPORAL STATISTIC: TIME AVERAGE
 281 ID: 1.5_TREE2_TEMPERATURE_THERMOCOUPLE
     QUANTITY: TEMPERATURE
     Coordinates (X,Y,Z):   0.380E+01   0.200E+01   0.150E+01
     TEMPORAL STATISTIC: TIME AVERAGE
 282 ID: 1.5_TREE2_THERMOCOUPLE
     QUANTITY: THERMOCOUPLE
     Coordinates (X,Y,Z):   0.380E+01   0.200E+01   0.150E+01
     TEMPORAL STATISTIC: TIME AVERAGE
 283 ID: nozzle
     QUANTITY: TIME
     Coordinates (X,Y,Z):   0.200E+01   0.200E+01   0.180E+01
     TEMPORAL STATISTIC: TIME AVERAGE
  Property ID: particle_nozzles
 284 ID: nozzle
     QUANTITY: TIME
     Coordinates (X,Y,Z):   0.100E+01   0.100E+01   0.180E+01
     TEMPORAL STATISTIC: TIME AVERAGE
  Property ID: particle_nozzles
 285 ID: nozzle
     QUANTITY: TIME
     Coordinates (X,Y,Z):   0.300E+01   0.100E+01   0.180E+01
     TEMPORAL STATISTIC: TIME AVERAGE
  Property ID: particle_nozzles
 286 ID: nozzle
     QUANTITY: TIME
     Coordinates (X,Y,Z):   0.100E+01   0.300E+01   0.180E+01
     TEMPORAL STATISTIC: TIME AVERAGE
  Property ID: particle_nozzles
 287 ID: nozzle
     QUANTITY: TIME
     Coordinates (X,Y,Z):   0.300E+01   0.300E+01   0.180E+01
     TEMPORAL STATISTIC: TIME AVERAGE
  Property ID: particle_nozzles


 Slice File Information, Mesh     1

   Sampling Interval (s)             0.600

   1 Nodes:  40  40   0  40   0  23, Quantity: TEMPERATURE
   2 Nodes:  40  40   0  40   0  23, Quantity: U-VELOCITY
   3 Nodes:  40  40   0  40   0  23, Quantity: V-VELOCITY
   4 Nodes:  40  40   0  40   0  23, Quantity: W-VELOCITY
   5 Nodes:   0  40  40  40   0  23, Quantity: TEMPERATURE
   6 Nodes:   0  40  40  40   0  23, Quantity: U-VELOCITY
   7 Nodes:   0  40  40  40   0  23, Quantity: V-VELOCITY
   8 Nodes:   0  40  40  40   0  23, Quantity: W-VELOCITY
   9 Nodes:  40  40   0  40   0  23, Quantity: TEMPERATURE
  10 Nodes:  40  40   0  40   0  23, Quantity: U-VELOCITY
  11 Nodes:  40  40   0  40   0  23, Quantity: V-VELOCITY
  12 Nodes:  40  40   0  40   0  23, Quantity: W-VELOCITY
  13 Nodes:   0  40  40  40   0  23, Quantity: TEMPERATURE
  14 Nodes:   0  40  40  40   0  23, Quantity: U-VELOCITY
  15 Nodes:   0  40  40  40   0  23, Quantity: V-VELOCITY
  16 Nodes:   0  40  40  40   0  23, Quantity: W-VELOCITY
  17 Nodes:  40  40   0  40   0  23, Quantity: VELOCITY
  18 Nodes:   0  40  40  40   0  23, Quantity: VELOCITY
  19 Nodes:  40  40   0  40   0  23, Quantity: WATER VAPOR MASS FRACTION
  20 Nodes:   0  40  40  40   0  23, Quantity: WATER VAPOR MASS FRACTION


 Boundary File Information

   Sampling Interval (s)             1.200

   1 Quantity: water_droplets AMPUA


 Radiation Model Information

   Number of control angles  104
   Time step increment         3
   Angle increment             5
   Theta band N_phi   Solid angle
     1:        4     0.120
     2:       12     0.114
     3:       16     0.127
     4:       20     0.120
     5:       20     0.120
     6:       16     0.127
     7:       12     0.114
     8:        4     0.120
   Using gray gas absorption.
   Mean beam length  1.000E-01 m
 
 

 Run Time Diagnostics

 Time Step:      1, Simulation Time:      0.03 s, Step Size: 0.02606 s
 Time Step:      2, Simulation Time:      0.05 s, Step Size: 0.02606 s
 Time Step:      3, Simulation Time:      0.08 s, Step Size: 0.02606 s
 Time Step:      4, Simulation Time:      0.10 s, Step Size: 0.02606 s
 Time Step:      5, Simulation Time:      0.13 s, Step Size: 0.02606 s
 Time Step:      6, Simulation Time:      0.16 s, Step Size: 0.02606 s
 Time Step:      7, Simulation Time:      0.18 s, Step Size: 0.02606 s
 Time Step:      8, Simulation Time:      0.21 s, Step Size: 0.02606 s
 Time Step:      9, Simulation Time:      0.23 s, Step Size: 0.02606 s
 Time Step:     10, Simulation Time:      0.26 s, Step Size: 0.02606 s
 Time Step:     20, Simulation Time:      0.44 s, Step Size: 0.01342 s
 Time Step:     30, Simulation Time:      0.55 s, Step Size: 0.00843 s
 Time Step:     40, Simulation Time:      0.63 s, Step Size: 0.00745 s
 Time Step:     50, Simulation Time:      0.69 s, Step Size: 0.00587 s
 Time Step:     60, Simulation Time:      0.75 s, Step Size: 0.00508 s
 Time Step:     70, Simulation Time:      0.80 s, Step Size: 0.00439 s
 Time Step:     80, Simulation Time:      0.84 s, Step Size: 0.00439 s
 Time Step:     90, Simulation Time:      0.88 s, Step Size: 0.00361 s
 Time Step:    100, Simulation Time:      0.91 s, Step Size: 0.00315 s
 Time Step:    200, Simulation Time:      1.23 s, Step Size: 0.00299 s
 Time Step:    300, Simulation Time:      1.51 s, Step Size: 0.00287 s
 Time Step:    400, Simulation Time:      1.83 s, Step Size: 0.00299 s
 Time Step:    500, Simulation Time:      2.13 s, Step Size: 0.00326 s
 Time Step:    600, Simulation Time:      2.44 s, Step Size: 0.00344 s
 Time Step:    700, Simulation Time:      2.77 s, Step Size: 0.00304 s
 Time Step:    800, Simulation Time:      3.09 s, Step Size: 0.00292 s
 Time Step:    900, Simulation Time:      3.41 s, Step Size: 0.00340 s
 Time Step:   1000, Simulation Time:      3.72 s, Step Size: 0.00302 s
 Time Step:   1100, Simulation Time:      4.05 s, Step Size: 0.00299 s
 Time Step:   1200, Simulation Time:      4.36 s, Step Size: 0.00295 s
 Time Step:   1300, Simulation Time:      4.67 s, Step Size: 0.00321 s
 Time Step:   1400, Simulation Time:      4.99 s, Step Size: 0.00314 s
 Time Step:   1500, Simulation Time:      5.33 s, Step Size: 0.00332 s
 Time Step:   1600, Simulation Time:      5.64 s, Step Size: 0.00321 s
 Time Step:   1700, Simulation Time:      5.98 s, Step Size: 0.00305 s
 Time Step:   1800, Simulation Time:      6.31 s, Step Size: 0.00350 s
 Time Step:   1900, Simulation Time:      6.63 s, Step Size: 0.00333 s
 Time Step:   2000, Simulation Time:      6.97 s, Step Size: 0.00317 s
 Time Step:   2100, Simulation Time:      7.31 s, Step Size: 0.00340 s
 Time Step:   2200, Simulation Time:      7.63 s, Step Size: 0.00335 s
 Time Step:   2300, Simulation Time:      7.96 s, Step Size: 0.00351 s
 Time Step:   2400, Simulation Time:      8.27 s, Step Size: 0.00305 s
 Time Step:   2500, Simulation Time:      8.59 s, Step Size: 0.00360 s
 Time Step:   2600, Simulation Time:      8.92 s, Step Size: 0.00315 s
 Time Step:   2700, Simulation Time:      9.25 s, Step Size: 0.00341 s
 Time Step:   2800, Simulation Time:      9.59 s, Step Size: 0.00334 s
 Time Step:   2900, Simulation Time:      9.92 s, Step Size: 0.00328 s
 Time Step:   3000, Simulation Time:     10.23 s, Step Size: 0.00315 s
 Time Step:   3100, Simulation Time:     10.56 s, Step Size: 0.00311 s
 Time Step:   3200, Simulation Time:     10.87 s, Step Size: 0.00336 s
 Time Step:   3300, Simulation Time:     11.19 s, Step Size: 0.00284 s
 Time Step:   3400, Simulation Time:     11.50 s, Step Size: 0.00300 s
 Time Step:   3500, Simulation Time:     11.82 s, Step Size: 0.00352 s
 Time Step:   3600, Simulation Time:     12.14 s, Step Size: 0.00316 s
 Time Step:   3700, Simulation Time:     12.47 s, Step Size: 0.00339 s
 Time Step:   3800, Simulation Time:     12.79 s, Step Size: 0.00323 s
 Time Step:   3900, Simulation Time:     13.10 s, Step Size: 0.00308 s
 Time Step:   4000, Simulation Time:     13.43 s, Step Size: 0.00332 s
 Time Step:   4100, Simulation Time:     13.76 s, Step Size: 0.00324 s
 Time Step:   4200, Simulation Time:     14.08 s, Step Size: 0.00313 s
 Time Step:   4300, Simulation Time:     14.41 s, Step Size: 0.00303 s
 Time Step:   4400, Simulation Time:     14.70 s, Step Size: 0.00266 s
 Time Step:   4500, Simulation Time:     15.00 s, Step Size: 0.00288 s
 Time Step:   4600, Simulation Time:     15.32 s, Step Size: 0.00342 s
 Time Step:   4700, Simulation Time:     15.66 s, Step Size: 0.00342 s
 Time Step:   4800, Simulation Time:     15.99 s, Step Size: 0.00336 s
 Time Step:   4900, Simulation Time:     16.33 s, Step Size: 0.00336 s
 Time Step:   5000, Simulation Time:     16.65 s, Step Size: 0.00336 s
 Time Step:   5100, Simulation Time:     16.96 s, Step Size: 0.00344 s
 Time Step:   5200, Simulation Time:     17.27 s, Step Size: 0.00309 s
 Time Step:   5300, Simulation Time:     17.58 s, Step Size: 0.00340 s
 Time Step:   5400, Simulation Time:     17.91 s, Step Size: 0.00328 s
 Time Step:   5500, Simulation Time:     18.24 s, Step Size: 0.00351 s
 Time Step:   5600, Simulation Time:     18.57 s, Step Size: 0.00329 s
 Time Step:   5700, Simulation Time:     18.87 s, Step Size: 0.00310 s
 Time Step:   5800, Simulation Time:     19.21 s, Step Size: 0.00337 s
 Time Step:   5900, Simulation Time:     19.54 s, Step Size: 0.00350 s
 Time Step:   6000, Simulation Time:     19.86 s, Step Size: 0.00313 s
 Time Step:   6100, Simulation Time:     20.17 s, Step Size: 0.00294 s
 Time Step:   6200, Simulation Time:     20.49 s, Step Size: 0.00323 s
 Time Step:   6300, Simulation Time:     20.81 s, Step Size: 0.00349 s
 Time Step:   6400, Simulation Time:     21.13 s, Step Size: 0.00344 s
 Time Step:   6500, Simulation Time:     21.47 s, Step Size: 0.00344 s
 Time Step:   6600, Simulation Time:     21.80 s, Step Size: 0.00333 s
 Time Step:   6700, Simulation Time:     22.13 s, Step Size: 0.00300 s
 Time Step:   6800, Simulation Time:     22.43 s, Step Size: 0.00290 s
 Time Step:   6900, Simulation Time:     22.73 s, Step Size: 0.00319 s
 Time Step:   7000, Simulation Time:     23.05 s, Step Size: 0.00346 s
 Time Step:   7100, Simulation Time:     23.39 s, Step Size: 0.00305 s
 Time Step:   7200, Simulation Time:     23.70 s, Step Size: 0.00326 s
 Time Step:   7300, Simulation Time:     24.03 s, Step Size: 0.00313 s
 Time Step:   7400, Simulation Time:     24.37 s, Step Size: 0.00309 s
 Time Step:   7500, Simulation Time:     24.71 s, Step Size: 0.00339 s
 Time Step:   7600, Simulation Time:     25.02 s, Step Size: 0.00322 s
 Time Step:   7700, Simulation Time:     25.34 s, Step Size: 0.00313 s
 Time Step:   7800, Simulation Time:     25.65 s, Step Size: 0.00269 s
 Time Step:   7900, Simulation Time:     25.96 s, Step Size: 0.00326 s
 Time Step:   8000, Simulation Time:     26.29 s, Step Size: 0.00358 s
 Time Step:   8100, Simulation Time:     26.63 s, Step Size: 0.00351 s
 Time Step:   8200, Simulation Time:     26.97 s, Step Size: 0.00294 s
 Time Step:   8300, Simulation Time:     27.28 s, Step Size: 0.00355 s
 Time Step:   8400, Simulation Time:     27.59 s, Step Size: 0.00301 s
 Time Step:   8500, Simulation Time:     27.89 s, Step Size: 0.00301 s
 Time Step:   8600, Simulation Time:     28.20 s, Step Size: 0.00326 s
 Time Step:   8700, Simulation Time:     28.52 s, Step Size: 0.00326 s
 Time Step:   8800, Simulation Time:     28.83 s, Step Size: 0.00288 s
 Time Step:   8900, Simulation Time:     29.16 s, Step Size: 0.00343 s
 Time Step:   9000, Simulation Time:     29.48 s, Step Size: 0.00332 s
 Time Step:   9100, Simulation Time:     29.79 s, Step Size: 0.00297 s
 Time Step:   9200, Simulation Time:     30.13 s, Step Size: 0.00280 s
 Time Step:   9300, Simulation Time:     30.43 s, Step Size: 0.00339 s
 Time Step:   9400, Simulation Time:     30.76 s, Step Size: 0.00332 s
 Time Step:   9500, Simulation Time:     31.09 s, Step Size: 0.00317 s
 Time Step:   9600, Simulation Time:     31.42 s, Step Size: 0.00349 s
 Time Step:   9700, Simulation Time:     31.74 s, Step Size: 0.00342 s
 Time Step:   9800, Simulation Time:     32.07 s, Step Size: 0.00304 s
 Time Step:   9900, Simulation Time:     32.39 s, Step Size: 0.00334 s
 Time Step:  10000, Simulation Time:     32.70 s, Step Size: 0.00324 s
 Time Step:  10100, Simulation Time:     33.00 s, Step Size: 0.00291 s
 Time Step:  10200, Simulation Time:     33.32 s, Step Size: 0.00280 s
 Time Step:  10300, Simulation Time:     33.64 s, Step Size: 0.00338 s
 Time Step:  10400, Simulation Time:     33.94 s, Step Size: 0.00302 s
 Time Step:  10500, Simulation Time:     34.25 s, Step Size: 0.00320 s
 Time Step:  10600, Simulation Time:     34.57 s, Step Size: 0.00346 s
 Time Step:  10700, Simulation Time:     34.89 s, Step Size: 0.00293 s
 Time Step:  10800, Simulation Time:     35.21 s, Step Size: 0.00315 s
 Time Step:  10900, Simulation Time:     35.53 s, Step Size: 0.00315 s
 Time Step:  11000, Simulation Time:     35.83 s, Step Size: 0.00342 s
 Time Step:  11100, Simulation Time:     36.16 s, Step Size: 0.00293 s
 Time Step:  11200, Simulation Time:     36.48 s, Step Size: 0.00311 s
 Time Step:  11300, Simulation Time:     36.79 s, Step Size: 0.00299 s
 Time Step:  11400, Simulation Time:     37.11 s, Step Size: 0.00329 s
 Time Step:  11500, Simulation Time:     37.42 s, Step Size: 0.00346 s
 Time Step:  11600, Simulation Time:     37.76 s, Step Size: 0.00303 s
 Time Step:  11700, Simulation Time:     38.08 s, Step Size: 0.00334 s
 Time Step:  11800, Simulation Time:     38.40 s, Step Size: 0.00324 s
 Time Step:  11900, Simulation Time:     38.72 s, Step Size: 0.00314 s
 Time Step:  12000, Simulation Time:     39.05 s, Step Size: 0.00310 s
 Time Step:  12100, Simulation Time:     39.36 s, Step Size: 0.00310 s
 Time Step:  12200, Simulation Time:     39.68 s, Step Size: 0.00304 s
 Time Step:  12300, Simulation Time:     39.99 s, Step Size: 0.00297 s
 Time Step:  12400, Simulation Time:     40.30 s, Step Size: 0.00315 s
 Time Step:  12500, Simulation Time:     40.61 s, Step Size: 0.00337 s
 Time Step:  12600, Simulation Time:     40.92 s, Step Size: 0.00350 s
 Time Step:  12700, Simulation Time:     41.24 s, Step Size: 0.00339 s
 Time Step:  12800, Simulation Time:     41.57 s, Step Size: 0.00304 s
 Time Step:  12900, Simulation Time:     41.89 s, Step Size: 0.00335 s
 Time Step:  13000, Simulation Time:     42.22 s, Step Size: 0.00286 s
 Time Step:  13100, Simulation Time:     42.54 s, Step Size: 0.00342 s
 Time Step:  13200, Simulation Time:     42.85 s, Step Size: 0.00318 s
 Time Step:  13300, Simulation Time:     43.18 s, Step Size: 0.00303 s
 Time Step:  13400, Simulation Time:     43.49 s, Step Size: 0.00334 s
 Time Step:  13500, Simulation Time:     43.82 s, Step Size: 0.00327 s
 Time Step:  13600, Simulation Time:     44.15 s, Step Size: 0.00327 s
[...]
 Time Step: 270800, Simulation Time:    559.72 s, Step Size: 0.00143 s
 Time Step: 270900, Simulation Time:    559.88 s, Step Size: 0.00166 s
 Time Step: 271000, Simulation Time:    560.03 s, Step Size: 0.00167 s
 Time Step: 271100, Simulation Time:    560.18 s, Step Size: 0.00144 s
 Time Step: 271200, Simulation Time:    560.33 s, Step Size: 0.00162 s
 Time Step: 271300, Simulation Time:    560.49 s, Step Size: 0.00160 s
 Time Step: 271400, Simulation Time:    560.64 s, Step Size: 0.00143 s
 Time Step: 271500, Simulation Time:    560.79 s, Step Size: 0.00166 s
 Time Step: 271600, Simulation Time:    560.95 s, Step Size: 0.00175 s
 Time Step: 271700, Simulation Time:    561.10 s, Step Size: 0.00166 s
 Time Step: 271800, Simulation Time:    561.25 s, Step Size: 0.00121 s
 Time Step: 271900, Simulation Time:    561.40 s, Step Size: 0.00191 s
 Time Step: 272000, Simulation Time:    561.56 s, Step Size: 0.00175 s
 Time Step: 272100, Simulation Time:    561.71 s, Step Size: 0.00167 s
 Time Step: 272200, Simulation Time:    561.86 s, Step Size: 0.00157 s
 Time Step: 272300, Simulation Time:    562.02 s, Step Size: 0.00166 s
 Time Step: 272400, Simulation Time:    562.18 s, Step Size: 0.00125 s
 Time Step: 272500, Simulation Time:    562.33 s, Step Size: 0.00150 s
 Time Step: 272600, Simulation Time:    562.49 s, Step Size: 0.00143 s
 Time Step: 272700, Simulation Time:    562.64 s, Step Size: 0.00182 s
 Time Step: 272800, Simulation Time:    562.79 s, Step Size: 0.00143 s
 Time Step: 272900, Simulation Time:    562.94 s, Step Size: 0.00150 s
 Time Step: 273000, Simulation Time:    563.09 s, Step Size: 0.00159 s
 Time Step: 273100, Simulation Time:    563.24 s, Step Size: 0.00160 s
 Time Step: 273200, Simulation Time:    563.39 s, Step Size: 0.00153 s
 Time Step: 273300, Simulation Time:    563.54 s, Step Size: 0.00152 s
 Time Step: 273400, Simulation Time:    563.69 s, Step Size: 0.00167 s
 Time Step: 273500, Simulation Time:    563.83 s, Step Size: 0.00161 s
 Time Step: 273600, Simulation Time:    563.98 s, Step Size: 0.00154 s
 Time Step: 273700, Simulation Time:    564.14 s, Step Size: 0.00141 s
 Time Step: 273800, Simulation Time:    564.29 s, Step Size: 0.00126 s
 Time Step: 273900, Simulation Time:    564.44 s, Step Size: 0.00139 s
 Time Step: 274000, Simulation Time:    564.59 s, Step Size: 0.00166 s
 Time Step: 274100, Simulation Time:    564.74 s, Step Size: 0.00151 s
 Time Step: 274200, Simulation Time:    564.90 s, Step Size: 0.00168 s
 Time Step: 274300, Simulation Time:    565.05 s, Step Size: 0.00157 s
 Time Step: 274400, Simulation Time:    565.21 s, Step Size: 0.00129 s
 Time Step: 274500, Simulation Time:    565.36 s, Step Size: 0.00144 s
 Time Step: 274600, Simulation Time:    565.51 s, Step Size: 0.00156 s
 Time Step: 274700, Simulation Time:    565.66 s, Step Size: 0.00126 s
 Time Step: 274800, Simulation Time:    565.82 s, Step Size: 0.00169 s
 Time Step: 274900, Simulation Time:    565.97 s, Step Size: 0.00165 s
 Time Step: 275000, Simulation Time:    566.11 s, Step Size: 0.00127 s
 Time Step: 275100, Simulation Time:    566.26 s, Step Size: 0.00147 s
 Time Step: 275200, Simulation Time:    566.41 s, Step Size: 0.00130 s
 Time Step: 275300, Simulation Time:    566.56 s, Step Size: 0.00167 s
 Time Step: 275400, Simulation Time:    566.71 s, Step Size: 0.00144 s
 Time Step: 275500, Simulation Time:    566.86 s, Step Size: 0.00149 s
 Time Step: 275600, Simulation Time:    567.01 s, Step Size: 0.00136 s
 Time Step: 275700, Simulation Time:    567.15 s, Step Size: 0.00128 s
 Time Step: 275800, Simulation Time:    567.29 s, Step Size: 0.00115 s
 Time Step: 275900, Simulation Time:    567.44 s, Step Size: 0.00136 s
 Time Step: 276000, Simulation Time:    567.58 s, Step Size: 0.00150 s
 Time Step: 276100, Simulation Time:    567.73 s, Step Size: 0.00124 s
 Time Step: 276200, Simulation Time:    567.88 s, Step Size: 0.00159 s
 Time Step: 276300, Simulation Time:    568.03 s, Step Size: 0.00141 s
 Time Step: 276400, Simulation Time:    568.17 s, Step Size: 0.00140 s
 Time Step: 276500, Simulation Time:    568.31 s, Step Size: 0.00172 s
 Time Step: 276600, Simulation Time:    568.45 s, Step Size: 0.00136 s
 Time Step: 276700, Simulation Time:    568.59 s, Step Size: 0.00131 s
 Time Step: 276800, Simulation Time:    568.74 s, Step Size: 0.00148 s
 Time Step: 276900, Simulation Time:    568.89 s, Step Size: 0.00141 s
 Time Step: 277000, Simulation Time:    569.03 s, Step Size: 0.00137 s
 Time Step: 277100, Simulation Time:    569.18 s, Step Size: 0.00154 s
 Time Step: 277200, Simulation Time:    569.32 s, Step Size: 0.00148 s
 Time Step: 277300, Simulation Time:    569.46 s, Step Size: 0.00160 s
 Time Step: 277400, Simulation Time:    569.59 s, Step Size: 0.00159 s
 Time Step: 277500, Simulation Time:    569.74 s, Step Size: 0.00142 s
 Time Step: 277600, Simulation Time:    569.87 s, Step Size: 0.00177 s
 Time Step: 277700, Simulation Time:    570.02 s, Step Size: 0.00164 s
 Time Step: 277800, Simulation Time:    570.17 s, Step Size: 0.00162 s
 Time Step: 277900, Simulation Time:    570.33 s, Step Size: 0.00172 s
 Time Step: 278000, Simulation Time:    570.47 s, Step Size: 0.00151 s
 Time Step: 278100, Simulation Time:    570.62 s, Step Size: 0.00155 s
 Time Step: 278200, Simulation Time:    570.77 s, Step Size: 0.00116 s
 Time Step: 278300, Simulation Time:    570.92 s, Step Size: 0.00136 s
 Time Step: 278400, Simulation Time:    571.07 s, Step Size: 0.00144 s
 Time Step: 278500, Simulation Time:    571.22 s, Step Size: 0.00155 s
 Time Step: 278600, Simulation Time:    571.37 s, Step Size: 0.00157 s
 Time Step: 278700, Simulation Time:    571.52 s, Step Size: 0.00123 s
 Time Step: 278800, Simulation Time:    571.67 s, Step Size: 0.00152 s
 Time Step: 278900, Simulation Time:    571.81 s, Step Size: 0.00126 s
 Time Step: 279000, Simulation Time:    571.97 s, Step Size: 0.00156 s
 Time Step: 279100, Simulation Time:    572.11 s, Step Size: 0.00148 s
 Time Step: 279200, Simulation Time:    572.26 s, Step Size: 0.00107 s
 Time Step: 279300, Simulation Time:    572.41 s, Step Size: 0.00146 s
 Time Step: 279400, Simulation Time:    572.56 s, Step Size: 0.00148 s
 Time Step: 279500, Simulation Time:    572.71 s, Step Size: 0.00131 s
 Time Step: 279600, Simulation Time:    572.85 s, Step Size: 0.00121 s
 Time Step: 279700, Simulation Time:    573.01 s, Step Size: 0.00117 s
 Time Step: 279800, Simulation Time:    573.16 s, Step Size: 0.00146 s
 Time Step: 279900, Simulation Time:    573.32 s, Step Size: 0.00149 s
 Time Step: 280000, Simulation Time:    573.47 s, Step Size: 0.00166 s
 Time Step: 280100, Simulation Time:    573.62 s, Step Size: 0.00139 s
 Time Step: 280200, Simulation Time:    573.77 s, Step Size: 0.00168 s
 Time Step: 280300, Simulation Time:    573.92 s, Step Size: 0.00158 s
 Time Step: 280400, Simulation Time:    574.07 s, Step Size: 0.00157 s
 Time Step: 280500, Simulation Time:    574.22 s, Step Size: 0.00133 s
 Time Step: 280600, Simulation Time:    574.37 s, Step Size: 0.00137 s
 Time Step: 280700, Simulation Time:    574.52 s, Step Size: 0.00176 s
 Time Step: 280800, Simulation Time:    574.67 s, Step Size: 0.00160 s
 Time Step: 280900, Simulation Time:    574.82 s, Step Size: 0.00150 s
 Time Step: 281000, Simulation Time:    574.97 s, Step Size: 0.00123 s
 Time Step: 281100, Simulation Time:    575.12 s, Step Size: 0.00166 s
 Time Step: 281200, Simulation Time:    575.27 s, Step Size: 0.00100 s
 Time Step: 281300, Simulation Time:    575.42 s, Step Size: 0.00170 s
 Time Step: 281400, Simulation Time:    575.57 s, Step Size: 0.00149 s
 Time Step: 281500, Simulation Time:    575.73 s, Step Size: 0.00138 s
 Time Step: 281600, Simulation Time:    575.87 s, Step Size: 0.00170 s
 Time Step: 281700, Simulation Time:    576.02 s, Step Size: 0.00151 s
 Time Step: 281800, Simulation Time:    576.17 s, Step Size: 0.00165 s
 Time Step: 281900, Simulation Time:    576.32 s, Step Size: 0.00152 s
 Time Step: 282000, Simulation Time:    576.47 s, Step Size: 0.00132 s
 Time Step: 282100, Simulation Time:    576.61 s, Step Size: 0.00168 s
 Time Step: 282200, Simulation Time:    576.76 s, Step Size: 0.00160 s
 Time Step: 282300, Simulation Time:    576.91 s, Step Size: 0.00148 s
 Time Step: 282400, Simulation Time:    577.05 s, Step Size: 0.00158 s
 Time Step: 282500, Simulation Time:    577.20 s, Step Size: 0.00159 s
 Time Step: 282600, Simulation Time:    577.36 s, Step Size: 0.00172 s
 Time Step: 282700, Simulation Time:    577.51 s, Step Size: 0.00139 s
 Time Step: 282800, Simulation Time:    577.65 s, Step Size: 0.00159 s
 Time Step: 282900, Simulation Time:    577.81 s, Step Size: 0.00164 s
 Time Step: 283000, Simulation Time:    577.95 s, Step Size: 0.00145 s
 Time Step: 283100, Simulation Time:    578.11 s, Step Size: 0.00162 s
 Time Step: 283200, Simulation Time:    578.26 s, Step Size: 0.00162 s
 Time Step: 283300, Simulation Time:    578.40 s, Step Size: 0.00129 s
 Time Step: 283400, Simulation Time:    578.55 s, Step Size: 0.00150 s
 Time Step: 283500, Simulation Time:    578.70 s, Step Size: 0.00172 s
 Time Step: 283600, Simulation Time:    578.86 s, Step Size: 0.00161 s
 Time Step: 283700, Simulation Time:    579.01 s, Step Size: 0.00136 s
 Time Step: 283800, Simulation Time:    579.16 s, Step Size: 0.00149 s
 Time Step: 283900, Simulation Time:    579.30 s, Step Size: 0.00140 s
 Time Step: 284000, Simulation Time:    579.45 s, Step Size: 0.00156 s
 Time Step: 284100, Simulation Time:    579.61 s, Step Size: 0.00128 s
 Time Step: 284200, Simulation Time:    579.75 s, Step Size: 0.00116 s
 Time Step: 284300, Simulation Time:    579.90 s, Step Size: 0.00161 s
 Time Step: 284400, Simulation Time:    580.05 s, Step Size: 0.00147 s
 Time Step: 284500, Simulation Time:    580.20 s, Step Size: 0.00167 s
 Time Step: 284600, Simulation Time:    580.35 s, Step Size: 0.00139 s
 Time Step: 284700, Simulation Time:    580.50 s, Step Size: 0.00135 s
 Time Step: 284800, Simulation Time:    580.65 s, Step Size: 0.00151 s
 Time Step: 284900, Simulation Time:    580.81 s, Step Size: 0.00184 s
 Time Step: 285000, Simulation Time:    580.96 s, Step Size: 0.00179 s
 Time Step: 285100, Simulation Time:    581.11 s, Step Size: 0.00148 s
 Time Step: 285200, Simulation Time:    581.27 s, Step Size: 0.00126 s
 Time Step: 285300, Simulation Time:    581.41 s, Step Size: 0.00155 s
 Time Step: 285400, Simulation Time:    581.56 s, Step Size: 0.00149 s
 Time Step: 285500, Simulation Time:    581.71 s, Step Size: 0.00137 s
 Time Step: 285600, Simulation Time:    581.86 s, Step Size: 0.00163 s
 Time Step: 285700, Simulation Time:    582.01 s, Step Size: 0.00183 s
 Time Step: 285800, Simulation Time:    582.16 s, Step Size: 0.00164 s
 Time Step: 285900, Simulation Time:    582.31 s, Step Size: 0.00140 s
 Time Step: 286000, Simulation Time:    582.45 s, Step Size: 0.00118 s
 Time Step: 286100, Simulation Time:    582.60 s, Step Size: 0.00136 s
 Time Step: 286200, Simulation Time:    582.75 s, Step Size: 0.00160 s
 Time Step: 286300, Simulation Time:    582.89 s, Step Size: 0.00146 s
 Time Step: 286400, Simulation Time:    583.03 s, Step Size: 0.00094 s
 Time Step: 286500, Simulation Time:    583.16 s, Step Size: 0.00132 s
 Time Step: 286600, Simulation Time:    583.30 s, Step Size: 0.00130 s
 Time Step: 286700, Simulation Time:    583.44 s, Step Size: 0.00138 s
 Time Step: 286800, Simulation Time:    583.58 s, Step Size: 0.00118 s
 Time Step: 286900, Simulation Time:    583.72 s, Step Size: 0.00118 s
 Time Step: 287000, Simulation Time:    583.87 s, Step Size: 0.00138 s
 Time Step: 287100, Simulation Time:    584.01 s, Step Size: 0.00152 s
 Time Step: 287200, Simulation Time:    584.15 s, Step Size: 0.00141 s
 Time Step: 287300, Simulation Time:    584.29 s, Step Size: 0.00135 s
 Time Step: 287400, Simulation Time:    584.44 s, Step Size: 0.00154 s
 Time Step: 287500, Simulation Time:    584.59 s, Step Size: 0.00175 s
 Time Step: 287600, Simulation Time:    584.74 s, Step Size: 0.00121 s
 Time Step: 287700, Simulation Time:    584.88 s, Step Size: 0.00162 s
 Time Step: 287800, Simulation Time:    585.03 s, Step Size: 0.00146 s
 Time Step: 287900, Simulation Time:    585.18 s, Step Size: 0.00157 s
 Time Step: 288000, Simulation Time:    585.33 s, Step Size: 0.00161 s
 Time Step: 288100, Simulation Time:    585.49 s, Step Size: 0.00128 s
 Time Step: 288200, Simulation Time:    585.64 s, Step Size: 0.00151 s
 Time Step: 288300, Simulation Time:    585.79 s, Step Size: 0.00144 s
 Time Step: 288400, Simulation Time:    585.94 s, Step Size: 0.00148 s
 Time Step: 288500, Simulation Time:    586.08 s, Step Size: 0.00150 s
 Time Step: 288600, Simulation Time:    586.24 s, Step Size: 0.00170 s
 Time Step: 288700, Simulation Time:    586.39 s, Step Size: 0.00159 s
 Time Step: 288800, Simulation Time:    586.54 s, Step Size: 0.00149 s
 Time Step: 288900, Simulation Time:    586.68 s, Step Size: 0.00129 s
 Time Step: 289000, Simulation Time:    586.84 s, Step Size: 0.00159 s
 Time Step: 289100, Simulation Time:    586.99 s, Step Size: 0.00150 s
 Time Step: 289200, Simulation Time:    587.14 s, Step Size: 0.00129 s
 Time Step: 289300, Simulation Time:    587.29 s, Step Size: 0.00143 s
 Time Step: 289400, Simulation Time:    587.45 s, Step Size: 0.00157 s
 Time Step: 289500, Simulation Time:    587.59 s, Step Size: 0.00141 s
 Time Step: 289600, Simulation Time:    587.74 s, Step Size: 0.00149 s
 Time Step: 289700, Simulation Time:    587.88 s, Step Size: 0.00143 s
 Time Step: 289800, Simulation Time:    588.03 s, Step Size: 0.00142 s
 Time Step: 289900, Simulation Time:    588.18 s, Step Size: 0.00132 s
 Time Step: 290000, Simulation Time:    588.32 s, Step Size: 0.00159 s
 Time Step: 290100, Simulation Time:    588.46 s, Step Size: 0.00136 s
 Time Step: 290200, Simulation Time:    588.60 s, Step Size: 0.00156 s
 Time Step: 290300, Simulation Time:    588.74 s, Step Size: 0.00172 s
 Time Step: 290400, Simulation Time:    588.88 s, Step Size: 0.00157 s
 Time Step: 290500, Simulation Time:    589.02 s, Step Size: 0.00138 s
 Time Step: 290600, Simulation Time:    589.16 s, Step Size: 0.00167 s
 Time Step: 290700, Simulation Time:    589.30 s, Step Size: 0.00109 s
 Time Step: 290800, Simulation Time:    589.45 s, Step Size: 0.00174 s
 Time Step: 290900, Simulation Time:    589.59 s, Step Size: 0.00131 s
 Time Step: 291000, Simulation Time:    589.74 s, Step Size: 0.00164 s
 Time Step: 291100, Simulation Time:    589.88 s, Step Size: 0.00134 s
 Time Step: 291200, Simulation Time:    590.03 s, Step Size: 0.00152 s
 Time Step: 291300, Simulation Time:    590.17 s, Step Size: 0.00126 s
 Time Step: 291400, Simulation Time:    590.31 s, Step Size: 0.00136 s
 Time Step: 291500, Simulation Time:    590.45 s, Step Size: 0.00160 s
 Time Step: 291600, Simulation Time:    590.60 s, Step Size: 0.00159 s
 Time Step: 291700, Simulation Time:    590.73 s, Step Size: 0.00134 s
 Time Step: 291800, Simulation Time:    590.87 s, Step Size: 0.00131 s
 Time Step: 291900, Simulation Time:    591.01 s, Step Size: 0.00125 s
 Time Step: 292000, Simulation Time:    591.15 s, Step Size: 0.00123 s
 Time Step: 292100, Simulation Time:    591.29 s, Step Size: 0.00152 s
 Time Step: 292200, Simulation Time:    591.43 s, Step Size: 0.00157 s
 Time Step: 292300, Simulation Time:    591.57 s, Step Size: 0.00128 s
 Time Step: 292400, Simulation Time:    591.71 s, Step Size: 0.00129 s
 Time Step: 292500, Simulation Time:    591.84 s, Step Size: 0.00160 s
 Time Step: 292600, Simulation Time:    591.99 s, Step Size: 0.00133 s
 Time Step: 292700, Simulation Time:    592.13 s, Step Size: 0.00157 s
 Time Step: 292800, Simulation Time:    592.28 s, Step Size: 0.00154 s
 Time Step: 292900, Simulation Time:    592.42 s, Step Size: 0.00128 s
 Time Step: 293000, Simulation Time:    592.56 s, Step Size: 0.00150 s
 Time Step: 293100, Simulation Time:    592.71 s, Step Size: 0.00147 s
 Time Step: 293200, Simulation Time:    592.86 s, Step Size: 0.00132 s
 Time Step: 293300, Simulation Time:    593.01 s, Step Size: 0.00157 s
 Time Step: 293400, Simulation Time:    593.15 s, Step Size: 0.00138 s
 Time Step: 293500, Simulation Time:    593.30 s, Step Size: 0.00136 s
 Time Step: 293600, Simulation Time:    593.44 s, Step Size: 0.00151 s
 Time Step: 293700, Simulation Time:    593.59 s, Step Size: 0.00147 s
 Time Step: 293800, Simulation Time:    593.73 s, Step Size: 0.00158 s
 Time Step: 293900, Simulation Time:    593.88 s, Step Size: 0.00149 s
 Time Step: 294000, Simulation Time:    594.02 s, Step Size: 0.00134 s
 Time Step: 294100, Simulation Time:    594.17 s, Step Size: 0.00137 s
 Time Step: 294200, Simulation Time:    594.33 s, Step Size: 0.00143 s
 Time Step: 294300, Simulation Time:    594.47 s, Step Size: 0.00164 s
 Time Step: 294400, Simulation Time:    594.63 s, Step Size: 0.00144 s
 Time Step: 294500, Simulation Time:    594.78 s, Step Size: 0.00150 s
 Time Step: 294600, Simulation Time:    594.93 s, Step Size: 0.00155 s
 Time Step: 294700, Simulation Time:    595.08 s, Step Size: 0.00181 s
 Time Step: 294800, Simulation Time:    595.24 s, Step Size: 0.00161 s
 Time Step: 294900, Simulation Time:    595.40 s, Step Size: 0.00169 s
 Time Step: 295000, Simulation Time:    595.55 s, Step Size: 0.00151 s
 Time Step: 295100, Simulation Time:    595.70 s, Step Size: 0.00144 s
 Time Step: 295200, Simulation Time:    595.85 s, Step Size: 0.00109 s
 Time Step: 295300, Simulation Time:    596.00 s, Step Size: 0.00151 s
 Time Step: 295400, Simulation Time:    596.16 s, Step Size: 0.00161 s
 Time Step: 295500, Simulation Time:    596.32 s, Step Size: 0.00161 s
 Time Step: 295600, Simulation Time:    596.47 s, Step Size: 0.00154 s
 Time Step: 295700, Simulation Time:    596.62 s, Step Size: 0.00118 s
 Time Step: 295800, Simulation Time:    596.77 s, Step Size: 0.00166 s
 Time Step: 295900, Simulation Time:    596.93 s, Step Size: 0.00148 s
 Time Step: 296000, Simulation Time:    597.08 s, Step Size: 0.00127 s
 Time Step: 296100, Simulation Time:    597.23 s, Step Size: 0.00143 s
 Time Step: 296200, Simulation Time:    597.38 s, Step Size: 0.00118 s
 Time Step: 296300, Simulation Time:    597.53 s, Step Size: 0.00167 s
 Time Step: 296400, Simulation Time:    597.68 s, Step Size: 0.00156 s
 Time Step: 296500, Simulation Time:    597.84 s, Step Size: 0.00129 s
 Time Step: 296600, Simulation Time:    598.00 s, Step Size: 0.00136 s
 Time Step: 296700, Simulation Time:    598.15 s, Step Size: 0.00168 s
 Time Step: 296800, Simulation Time:    598.31 s, Step Size: 0.00158 s
 Time Step: 296900, Simulation Time:    598.46 s, Step Size: 0.00158 s
 Time Step: 297000, Simulation Time:    598.61 s, Step Size: 0.00172 s
 Time Step: 297100, Simulation Time:    598.77 s, Step Size: 0.00156 s
 Time Step: 297200, Simulation Time:    598.92 s, Step Size: 0.00121 s
 Time Step: 297300, Simulation Time:    599.07 s, Step Size: 0.00167 s
 Time Step: 297400, Simulation Time:    599.22 s, Step Size: 0.00176 s
 Time Step: 297500, Simulation Time:    599.37 s, Step Size: 0.00145 s
 Time Step: 297600, Simulation Time:    599.53 s, Step Size: 0.00128 s
 Time Step: 297700, Simulation Time:    599.68 s, Step Size: 0.00136 s
 Time Step: 297800, Simulation Time:    599.83 s, Step Size: 0.00154 s
 Time Step: 297900, Simulation Time:    599.98 s, Step Size: 0.00138 s
 Time Step: 297911, Simulation Time:    600.00 s, Step Size: 0.00044 s


 DEVICE Activation Times

 283  nozzle                                                         310.0 s
 284  nozzle                                                         310.0 s
 285  nozzle                                                         310.0 s
 286  nozzle                                                         310.0 s
 287  nozzle                                                         310.0 s


 Time Stepping Wall Clock Time (s):   109644.001
 Total Elapsed Wall Clock Time (s):   109685.906

STOP: FDS completed successfully (CHID: Case1_Methanol_19kW)
