
 Fire Dynamics Simulator

 Current Date     : October 14, 2021  14:14:01
 Revision         : FDS6.7.6-618-g15afdd1-HEAD
 Revision Date    : Mon Aug 30 13:21:32 2021 -0400
 Compiler         : Intel ifort 19.1.3.304
 Compilation Date : Sep 02, 2021 17:53:46

 MPI Enabled;    Number of MPI Processes:       8
 OpenMP Enabled; Number of OpenMP Threads:      1

 MPI version: 3.1
 MPI library version: Intel(R) MPI Library 2019 Update 9 for Linux* OS


 Job TITLE        : Case2_Methanol_33kw
 Job ID string    : Case2_Methanol_33kw


 Grid Dimensions, Mesh     1

   Cells in the X Direction            40
   Cells in the Y Direction            40
   Cells in the Z Direction            23
   Number of Grid Cells             36800


 Physical Dimensions, Mesh     1

   Length (m)                       2.000
   Width  (m)                       2.000
   Height (m)                       1.150
   Initial Time Step (s)            0.052

 Grid Dimensions, Mesh     2

   Cells in the X Direction            40
   Cells in the Y Direction            40
   Cells in the Z Direction            23
   Number of Grid Cells             36800


 Physical Dimensions, Mesh     2

   Length (m)                       2.000
   Width  (m)                       2.000
   Height (m)                       1.150
   Initial Time Step (s)            0.052

 Grid Dimensions, Mesh     3

   Cells in the X Direction            40
   Cells in the Y Direction            40
   Cells in the Z Direction            23
   Number of Grid Cells             36800


 Physical Dimensions, Mesh     3

   Length (m)                       2.000
   Width  (m)                       2.000
   Height (m)                       1.150
   Initial Time Step (s)            0.052

 Grid Dimensions, Mesh     4

   Cells in the X Direction            40
   Cells in the Y Direction            40
   Cells in the Z Direction            23
   Number of Grid Cells             36800


 Physical Dimensions, Mesh     4

   Length (m)                       2.000
   Width  (m)                       2.000
   Height (m)                       1.150
   Initial Time Step (s)            0.052

 Grid Dimensions, Mesh     5

   Cells in the X Direction            40
   Cells in the Y Direction            40
   Cells in the Z Direction            23
   Number of Grid Cells             36800


 Physical Dimensions, Mesh     5

   Length (m)                       2.000
   Width  (m)                       2.000
   Height (m)                       1.150
   Initial Time Step (s)            0.052

 Grid Dimensions, Mesh     6

   Cells in the X Direction            40
   Cells in the Y Direction            40
   Cells in the Z Direction            23
   Number of Grid Cells             36800


 Physical Dimensions, Mesh     6

   Length (m)                       2.000
   Width  (m)                       2.000
   Height (m)                       1.150
   Initial Time Step (s)            0.052

 Grid Dimensions, Mesh     7

   Cells in the X Direction            40
   Cells in the Y Direction            40
   Cells in the Z Direction            23
   Number of Grid Cells             36800


 Physical Dimensions, Mesh     7

   Length (m)                       2.000
   Width  (m)                       2.000
   Height (m)                       1.150
   Initial Time Step (s)            0.052

 Grid Dimensions, Mesh     8

   Cells in the X Direction            40
   Cells in the Y Direction            40
   Cells in the Z Direction            23
   Number of Grid Cells             36800


 Physical Dimensions, Mesh     8

   Length (m)                       2.000
   Width  (m)                       2.000
   Height (m)                       1.150
   Initial Time Step (s)            0.052

Total Number of Grid Cells        294400


 Miscellaneous Parameters

   Simulation Start Time (s)          0.0
   Simulation End Time (s)          400.0
   LES Calculation
   Eddy Viscosity:           Deardorff Model (C_DEARDORFF = 0.10)
   Near-wall Eddy Viscosity: WALE Model (C_WALE = 0.60)
   Turbulent Prandtl Number:         0.50
   Turbulent Schmidt Number:         0.50
   Background Pressure (Pa):    101325.00
   Ambient Temperature (C):         27.00


 Background Stratification

      Z (m)     P_0 (Pa)    TMP_0 (C)
   ------------------------------------
        1.12    101312.14     27.00
        1.07    101312.71     27.00
        1.02    101313.28     27.00
        0.97    101313.85     27.00
        0.92    101314.42     27.00
        0.88    101315.00     27.00
        0.82    101315.57     27.00
        0.77    101316.14     27.00
        0.72    101316.71     27.00
        0.67    101317.28     27.00
        0.62    101317.85     27.00
        0.57    101318.42     27.00
        0.52    101319.00     27.00
        0.47    101319.57     27.00
        0.42    101320.14     27.00
        0.38    101320.71     27.00
        0.32    101321.28     27.00
        0.27    101321.85     27.00
        0.22    101322.42     27.00
        0.17    101323.00     27.00
        0.12    101323.57     27.00
        0.07    101324.14     27.00
        0.02    101324.71     27.00


 Mass Fraction Transformation Matrix to Convert Species Mixtures (Columns) to Primitive Species (Rows)

                         AIR       METHANOL  PRODUCTS  WATER VA
   METHANOL              0.000000  1.000000  0.000000  0.000000
   NITROGEN              0.760088  0.000000  0.658813  0.000000
   OXYGEN                0.230276  0.000000  0.000000  0.000000
   CARBON DIOXIDE        0.000590  0.000000  0.183518  0.000000
   WATER VAPOR           0.009046  0.000000  0.157669  1.000000
   CARBON MONOXIDE       0.000000  0.000000  0.000000  0.000000
   SOOT                  0.000000  0.000000  0.000000  0.000000
   HYDROGEN              0.000000  0.000000  0.000000  0.000000
   HYDROGEN CYANIDE      0.000000  0.000000  0.000000  0.000000


 Primitive Species Information

   METHANOL
   Gas Species
   Molecular Weight (g/mol)            32.04186
   Ambient Density (kg/m^3)            1.301
   Enthalpy of Formation (J/kg)       -6.40E+06

   NITROGEN
   Gas Species
   Molecular Weight (g/mol)            28.01340
   Ambient Density (kg/m^3)            1.137
   Enthalpy of Formation (J/kg)        0.00E+00

   OXYGEN
   Gas Species
   Molecular Weight (g/mol)            31.99880
   Ambient Density (kg/m^3)            1.299
   Enthalpy of Formation (J/kg)        0.00E+00

   CARBON DIOXIDE
   Gas Species
   Molecular Weight (g/mol)            44.00950
   Ambient Density (kg/m^3)            1.787
   Enthalpy of Formation (J/kg)       -8.94E+06

   WATER VAPOR
   Gas Species
   Molecular Weight (g/mol)            18.01528
   Ambient Density (kg/m^3)            0.731
   Enthalpy of Formation (J/kg)       -1.34E+07

   CARBON MONOXIDE
   Gas Species
   Molecular Weight (g/mol)            28.01010
   Ambient Density (kg/m^3)            1.137
   Enthalpy of Formation (J/kg)       -3.95E+06

   SOOT
   Gas Species
   Molecular Weight (g/mol)            10.91042
   Ambient Density (kg/m^3)            0.443
   Enthalpy of Formation (J/kg)        0.00E+00

   HYDROGEN
   Gas Species
   Molecular Weight (g/mol)             2.01588
   Ambient Density (kg/m^3)            0.082
   Enthalpy of Formation (J/kg)        0.00E+00

   HYDROGEN CYANIDE
   Gas Species
   Molecular Weight (g/mol)            27.02534
   Ambient Density (kg/m^3)            1.097
   Enthalpy of Formation (J/kg)        4.92E+06


 Tracked (Lumped) Species Information

   AIR
   Molecular Weight (g/mol)            28.69856
   Ambient Density (kg/m^3)            1.165
   Initial Mass Fraction               1.000
   Enthalpy of Formation (J/kg)     -1.27E+05

   Sub Species                    Mass Fraction     Mole Fraction
   NITROGEN                       7.600885E-01      7.786791E-01
   OXYGEN                         2.302759E-01      2.065261E-01
   CARBON DIOXIDE                 5.896176E-04      3.844892E-04
   WATER VAPOR                    9.045969E-03      1.441034E-02
 
     Viscosity (kg/m/s) Ambient,  300 K:  1.82E-05
                                  500 K:  2.61E-05
                                 1000 K:  4.12E-05
                                 1500 K:  5.37E-05
   Therm. Cond. (W/m/K) Ambient,  300 K:  2.60E-02
                                  500 K:  3.81E-02
                                 1000 K:  6.69E-02
                                 1500 K:  9.27E-02
        Enthalpy (J/kg) Ambient,  300 K: -1.25E+05
                                  500 K:  8.11E+04
                                 1000 K:  6.33E+05
                                 1500 K:  1.23E+06
    Spec. Heat (J/kg/K) Ambient,  300 K:  1.02E+03
                                  500 K:  1.04E+03
                                 1000 K:  1.16E+03
                                 1500 K:  1.23E+03
   Diff. Coeff. (m^2/s) Ambient,  300 K:  2.07E-05
                                  500 K:  4.97E-05
                                 1000 K:  1.58E-04
                                 1500 K:  3.10E-04

   METHANOL
   Molecular Weight (g/mol)            32.04186
   Ambient Density (kg/m^3)            1.301
   Initial Mass Fraction               0.000
   Enthalpy of Formation (J/kg)     -6.40E+06

   Sub Species                    Mass Fraction     Mole Fraction
   METHANOL                       1.000000E+00      1.000000E+00
 
     Viscosity (kg/m/s) Ambient,  300 K:  9.74E-06
                                  500 K:  1.64E-05
                                 1000 K:  3.13E-05
                                 1500 K:  4.32E-05
   Therm. Cond. (W/m/K) Ambient,  300 K:  1.41E-02
                                  500 K:  3.22E-02
                                 1000 K:  9.21E-02
                                 1500 K:  1.50E-01
        Enthalpy (J/kg) Ambient,  300 K: -6.27E+06
                                  500 K: -5.95E+06
                                 1000 K: -4.76E+06
                                 1500 K: -3.22E+06
    Spec. Heat (J/kg/K) Ambient,  300 K:  1.38E+03
                                  500 K:  1.86E+03
                                 1000 K:  2.79E+03
                                 1500 K:  3.29E+03
   Diff. Coeff. (m^2/s) Ambient,  300 K:  1.58E-05
                                  500 K:  4.03E-05
                                 1000 K:  1.34E-04
                                 1500 K:  2.67E-04

   PRODUCTS
   Molecular Weight (g/mol)            27.44260
   Ambient Density (kg/m^3)            1.114
   Initial Mass Fraction               0.000
   Enthalpy of Formation (J/kg)     -3.76E+06

   Sub Species                    Mass Fraction     Mole Fraction
   NITROGEN                       6.588132E-01      6.453893E-01
   CARBON DIOXIDE                 1.835182E-01      1.144348E-01
   WATER VAPOR                    1.576686E-01      2.401759E-01
   CARBON MONOXIDE                0.000000E+00      0.000000E+00
   SOOT                           0.000000E+00      0.000000E+00
   HYDROGEN CYANIDE               0.000000E+00      0.000000E+00
 
     Viscosity (kg/m/s) Ambient,  300 K:  1.60E-05
                                  500 K:  2.34E-05
                                 1000 K:  3.87E-05
                                 1500 K:  5.15E-05
   Therm. Cond. (W/m/K) Ambient,  300 K:  2.35E-02
                                  500 K:  3.60E-02
                                 1000 K:  6.82E-02
                                 1500 K:  9.93E-02
        Enthalpy (J/kg) Ambient,  300 K: -3.76E+06
                                  500 K: -3.52E+06
                                 1000 K: -2.89E+06
                                 1500 K: -2.17E+06
    Spec. Heat (J/kg/K) Ambient,  300 K:  1.13E+03
                                  500 K:  1.19E+03
                                 1000 K:  1.36E+03
                                 1500 K:  1.48E+03
   Diff. Coeff. (m^2/s) Ambient,  300 K:  2.04E-05
                                  500 K:  5.02E-05
                                 1000 K:  1.63E-04
                                 1500 K:  3.21E-04

   WATER VAPOR
   Molecular Weight (g/mol)            18.01528
   Ambient Density (kg/m^3)            0.731
   Initial Mass Fraction               0.000
   Enthalpy of Formation (J/kg)     -1.34E+07

   Sub Species                    Mass Fraction     Mole Fraction
   WATER VAPOR                    1.000000E+00      1.000000E+00
 
     Viscosity (kg/m/s) Ambient,  300 K:  1.08E-05
                                  500 K:  1.77E-05
                                 1000 K:  3.58E-05
                                 1500 K:  5.21E-05
   Therm. Cond. (W/m/K) Ambient,  300 K:  2.01E-02
                                  500 K:  3.46E-02
                                 1000 K:  8.21E-02
                                 1500 K:  1.37E-01
        Enthalpy (J/kg) Ambient,  300 K: -1.34E+07
                                  500 K: -1.30E+07
                                 1000 K: -1.20E+07
                                 1500 K: -1.07E+07
    Spec. Heat (J/kg/K) Ambient,  300 K:  1.86E+03
                                  500 K:  1.96E+03
                                 1000 K:  2.29E+03
                                 1500 K:  2.63E+03
   Diff. Coeff. (m^2/s) Ambient,  300 K:  2.19E-05
                                  500 K:  5.78E-05
                                 1000 K:  1.98E-04
                                 1500 K:  3.95E-04
 
   Liq. Enthalpy (J/kg)     Melt  273 K: -1.60E+07
                                  323 K: -1.58E+07
                            Boil  373 K: -1.56E+07
 
   Liq. Spec. Heat (J/kg/K) Melt  273 K:  4.23E+03
                                  323 K:  4.18E+03
                            Boil  373 K:  4.22E+03
 
   Heat of Vapor. (J/kg)    Melt  273 K:  2.50E+06
                                  323 K:  2.39E+06
                            Boil  373 K:  2.27E+06


 Gas Phase Reaction Information

   Fuel                                           Heat of Combustion (kJ/kg)
   METHANOL                                                       20977.6211

   Stoichiometry

   Primitive Species Stoich. Coeff.
   Species ID                                                          Molar
   METHANOL                                                        -1.000000
   OXYGEN                                                          -1.500000
   CARBON DIOXIDE                                                   1.000000
   WATER VAPOR                                                      2.000000

   Tracked (Lumped) Species Stoich. Coeff.
   Species ID                                             Molar         Mass
   AIR                                                -7.263004    -6.505171
   METHANOL                                           -1.000000    -1.000000
   PRODUCTS                                            8.763004     7.505171

   Reaction Kinetics

   Arrhenius Parameters
   Pre-exponential:    Infinite
   Activation Energy:  N/A

   ODE Solver:  EXPLICIT EULER
   Extinction Model:  EXTINCTION 2
   Auto-Ignition Temperature (K):       0.0
   Critical Flame Temperature (K):   1530.2


 Material Information

   1 CONCRETE                                                    
     Emissivity                      0.900
     Density (kg/m3)                2200.0
     Specific Heat (kJ/kg/K)       1.05E+00
     Conductivity (W/m/K)          1.40E+00

   2 STEEL                                                       
     Eurocode 3
     Emissivity                      0.900
     Density (kg/m3)                7850.0
     Specific Heat (kJ/kg/K)       4.44E-01
     Conductivity (W/m/K)          5.31E+01


 Surface Conditions

   0 INERT (DEFAULT)

   1 Methanol33kW
     HRR Per Unit Area (kW/m2)        206.2
     METHANOL Mass Flux (kg/s/m2)   9.83E-03

   2 STEEL_1mm
     Material List
          1  STEEL
     Layer  1
        Thickness   (m):  0.00200
        Density (kg/m3):  7850.00
        STEEL, Mass fraction:    1.00
     Total surface density    15.700 kg/m2
     Reaction products considered from the first  0.50 layers.
     Solid Phase Node, Layer, Coordinates(m):
                    0      1       0.0000000
                    1      1       0.0020000
     Exposed Backing

   3 OPEN
     Passive Vent to Atmosphere

   4 MIRROR
     Symmetry Plane

   5 INTERPOLATED

   6 PERIODIC

   7 HVAC

   8 MASSLESS TRACER

   9 DROPLET

  10 EVACUATION_OUTFLOW
     Normal Velocity (m/s)         0.000

  11 MASSLESS TARGET

  12 PERIODIC FLOW ONLY


 PROPerty Information

   1 TC
     Smokeview ID                sensor

   2 particle_nozzles
     Flow Rate (L/min)               6.00
     Particle Class              water_droplets
     Smokeview ID                nozzle


 Cut-off Density and Temperature

    Minimum Temperature:   -10.0 C
    Maximum Temperature:  2726.8 C
    Minimum Density:  1.165E-01 kg/m3
    Maximum Density:  2.968E+00 kg/m3


 Device Information

   1 ID: First_Ceiling_Gas_Temperature
     QUANTITY: THERMOCOUPLE
     Coordinates (X,Y,Z):   0.250E+01   0.200E+01   0.180E+01
     TEMPORAL STATISTIC: TIME AVERAGE
   2 ID: Fourth_Ceiling_Gas_Temperature
     QUANTITY: THERMOCOUPLE
     Coordinates (X,Y,Z):   0.380E+01   0.200E+01   0.180E+01
     TEMPORAL STATISTIC: TIME AVERAGE
   3 ID: Second_Ceiling_Gas_Temperature
     QUANTITY: THERMOCOUPLE
     Coordinates (X,Y,Z):   0.300E+01   0.200E+01   0.180E+01
     TEMPORAL STATISTIC: TIME AVERAGE
   4 ID: Third_Ceiling_Gas_Temperature
     QUANTITY: THERMOCOUPLE
     Coordinates (X,Y,Z):   0.350E+01   0.200E+01   0.180E+01
     TEMPORAL STATISTIC: TIME AVERAGE
   5 ID: First_Ceiling_Gas_Temperature1
     QUANTITY: THERMOCOUPLE
     Coordinates (X,Y,Z):   0.250E+01   0.200E+01   0.180E+01
     TEMPORAL STATISTIC: TIME AVERAGE
  Property ID: TC
   6 ID: Fourth_Ceiling_Gas_Temperature1
     QUANTITY: THERMOCOUPLE
     Coordinates (X,Y,Z):   0.380E+01   0.200E+01   0.180E+01
     TEMPORAL STATISTIC: TIME AVERAGE
  Property ID: TC
   7 ID: Second_Ceiling_Gas_Temperature1
     QUANTITY: THERMOCOUPLE
     Coordinates (X,Y,Z):   0.300E+01   0.200E+01   0.180E+01
     TEMPORAL STATISTIC: TIME AVERAGE
  Property ID: TC
   8 ID: Third_Ceiling_Gas_Temperature1
     QUANTITY: THERMOCOUPLE
     Coordinates (X,Y,Z):   0.350E+01   0.200E+01   0.180E+01
     TEMPORAL STATISTIC: TIME AVERAGE
  Property ID: TC
   9 ID: 0.5_TREE1_TEMPERATURE_THERMOCOUPLE
     QUANTITY: TEMPERATURE
     Coordinates (X,Y,Z):   0.300E+01   0.200E+01   0.500E+00
     TEMPORAL STATISTIC: TIME AVERAGE
  10 ID: 0.5_TREE1_THERMOCOUPLE
     QUANTITY: THERMOCOUPLE
     Coordinates (X,Y,Z):   0.300E+01   0.200E+01   0.500E+00
     TEMPORAL STATISTIC: TIME AVERAGE
  11 ID: 0.7_TREE1_TEMPERATURE_THERMOCOUPLE
     QUANTITY: TEMPERATURE
     Coordinates (X,Y,Z):   0.300E+01   0.200E+01   0.700E+00
     TEMPORAL STATISTIC: TIME AVERAGE
  12 ID: 0.7_TREE1_THERMOCOUPLE
     QUANTITY: THERMOCOUPLE
     Coordinates (X,Y,Z):   0.300E+01   0.200E+01   0.700E+00
     TEMPORAL STATISTIC: TIME AVERAGE
  13 ID: 0.9_TREE1_TEMPERATURE_THERMOCOUPLE
     QUANTITY: TEMPERATURE
     Coordinates (X,Y,Z):   0.300E+01   0.200E+01   0.900E+00
     TEMPORAL STATISTIC: TIME AVERAGE
  14 ID: 0.9_TREE1_THERMOCOUPLE
     QUANTITY: THERMOCOUPLE
     Coordinates (X,Y,Z):   0.300E+01   0.200E+01   0.900E+00
     TEMPORAL STATISTIC: TIME AVERAGE
  15 ID: 1.2_TREE1_TEMPERATURE_THERMOCOUPLE
     QUANTITY: TEMPERATURE
     Coordinates (X,Y,Z):   0.300E+01   0.200E+01   0.120E+01
     TEMPORAL STATISTIC: TIME AVERAGE
  16 ID: 1.2_TREE1_THERMOCOUPLE
     QUANTITY: THERMOCOUPLE
     Coordinates (X,Y,Z):   0.300E+01   0.200E+01   0.120E+01
     TEMPORAL STATISTIC: TIME AVERAGE
  17 ID: 1.5_TREE1_TEMPERATURE_THERMOCOUPLE
     QUANTITY: TEMPERATURE
     Coordinates (X,Y,Z):   0.300E+01   0.200E+01   0.150E+01
     TEMPORAL STATISTIC: TIME AVERAGE
  18 ID: 1.5_TREE1_THERMOCOUPLE
     QUANTITY: THERMOCOUPLE
     Coordinates (X,Y,Z):   0.300E+01   0.200E+01   0.150E+01
     TEMPORAL STATISTIC: TIME AVERAGE
  19 ID: 0.5_TREE2_TEMPERATURE_THERMOCOUPLE
     QUANTITY: TEMPERATURE
     Coordinates (X,Y,Z):   0.380E+01   0.200E+01   0.500E+00
     TEMPORAL STATISTIC: TIME AVERAGE
  20 ID: 0.5_TREE2_THERMOCOUPLE
     QUANTITY: THERMOCOUPLE
     Coordinates (X,Y,Z):   0.380E+01   0.200E+01   0.500E+00
     TEMPORAL STATISTIC: TIME AVERAGE
  21 ID: 0.7_TREE2_TEMPERATURE_THERMOCOUPLE
     QUANTITY: TEMPERATURE
     Coordinates (X,Y,Z):   0.380E+01   0.200E+01   0.700E+00
     TEMPORAL STATISTIC: TIME AVERAGE
  22 ID: 0.7_TREE2_THERMOCOUPLE
     QUANTITY: THERMOCOUPLE
     Coordinates (X,Y,Z):   0.380E+01   0.200E+01   0.700E+00
     TEMPORAL STATISTIC: TIME AVERAGE
  23 ID: 0.9_TREE2_TEMPERATURE_THERMOCOUPLE
     QUANTITY: TEMPERATURE
     Coordinates (X,Y,Z):   0.380E+01   0.200E+01   0.900E+00
     TEMPORAL STATISTIC: TIME AVERAGE
  24 ID: 0.9_TREE2_THERMOCOUPLE
     QUANTITY: THERMOCOUPLE
     Coordinates (X,Y,Z):   0.380E+01   0.200E+01   0.900E+00
     TEMPORAL STATISTIC: TIME AVERAGE
  25 ID: 1.2_TREE2_TEMPERATURE_THERMOCOUPLE
     QUANTITY: TEMPERATURE
     Coordinates (X,Y,Z):   0.380E+01   0.200E+01   0.120E+01
     TEMPORAL STATISTIC: TIME AVERAGE
  26 ID: 1.2_TREE2_THERMOCOUPLE
     QUANTITY: THERMOCOUPLE
     Coordinates (X,Y,Z):   0.380E+01   0.200E+01   0.120E+01
     TEMPORAL STATISTIC: TIME AVERAGE
  27 ID: 1.5_TREE2_TEMPERATURE_THERMOCOUPLE
     QUANTITY: TEMPERATURE
     Coordinates (X,Y,Z):   0.380E+01   0.200E+01   0.150E+01
     TEMPORAL STATISTIC: TIME AVERAGE
  28 ID: 1.5_TREE2_THERMOCOUPLE
     QUANTITY: THERMOCOUPLE
     Coordinates (X,Y,Z):   0.380E+01   0.200E+01   0.150E+01
     TEMPORAL STATISTIC: TIME AVERAGE
  29 ID: nozzle
     QUANTITY: TIME
     Coordinates (X,Y,Z):   0.200E+01   0.200E+01   0.180E+01
     TEMPORAL STATISTIC: TIME AVERAGE
  Property ID: particle_nozzles
  30 ID: nozzle
     QUANTITY: TIME
     Coordinates (X,Y,Z):   0.100E+01   0.100E+01   0.180E+01
     TEMPORAL STATISTIC: TIME AVERAGE
  Property ID: particle_nozzles
  31 ID: nozzle
     QUANTITY: TIME
     Coordinates (X,Y,Z):   0.300E+01   0.100E+01   0.180E+01
     TEMPORAL STATISTIC: TIME AVERAGE
  Property ID: particle_nozzles
  32 ID: nozzle
     QUANTITY: TIME
     Coordinates (X,Y,Z):   0.100E+01   0.300E+01   0.180E+01
     TEMPORAL STATISTIC: TIME AVERAGE
  Property ID: particle_nozzles
  33 ID: nozzle
     QUANTITY: TIME
     Coordinates (X,Y,Z):   0.300E+01   0.300E+01   0.180E+01
     TEMPORAL STATISTIC: TIME AVERAGE
  Property ID: particle_nozzles


 Slice File Information, Mesh     1

   Sampling Interval (s)             0.400

   1 Nodes:  21  21   0  40   0  23, Quantity: TEMPERATURE
   2 Nodes:  21  21   0  40   0  23, Quantity: U-VELOCITY
   3 Nodes:  21  21   0  40   0  23, Quantity: V-VELOCITY
   4 Nodes:  21  21   0  40   0  23, Quantity: W-VELOCITY
   5 Nodes:   0  40  21  21   0  23, Quantity: TEMPERATURE
   6 Nodes:   0  40  21  21   0  23, Quantity: U-VELOCITY
   7 Nodes:   0  40  21  21   0  23, Quantity: V-VELOCITY
   8 Nodes:   0  40  21  21   0  23, Quantity: W-VELOCITY
   9 Nodes:   0  40  40  40   0  23, Quantity: TEMPERATURE
  10 Nodes:   0  40  40  40   0  23, Quantity: U-VELOCITY
  11 Nodes:   0  40  40  40   0  23, Quantity: V-VELOCITY
  12 Nodes:   0  40  40  40   0  23, Quantity: W-VELOCITY
  13 Nodes:  40  40   0  40   0  23, Quantity: TEMPERATURE
  14 Nodes:  40  40   0  40   0  23, Quantity: U-VELOCITY
  15 Nodes:  40  40   0  40   0  23, Quantity: V-VELOCITY
  16 Nodes:  40  40   0  40   0  23, Quantity: W-VELOCITY
  17 Nodes:  20  20   0  40   0  23, Quantity: TEMPERATURE
  18 Nodes:  20  20   0  40   0  23, Quantity: U-VELOCITY
  19 Nodes:  20  20   0  40   0  23, Quantity: V-VELOCITY
  20 Nodes:  20  20   0  40   0  23, Quantity: W-VELOCITY
  21 Nodes:   0  40  20  20   0  23, Quantity: TEMPERATURE
  22 Nodes:   0  40  20  20   0  23, Quantity: U-VELOCITY
  23 Nodes:   0  40  20  20   0  23, Quantity: V-VELOCITY
  24 Nodes:   0  40  20  20   0  23, Quantity: W-VELOCITY
  25 Nodes:   0  40  40  40   0  23, Quantity: TEMPERATURE
  26 Nodes:   0  40  40  40   0  23, Quantity: U-VELOCITY
  27 Nodes:   0  40  40  40   0  23, Quantity: V-VELOCITY
  28 Nodes:   0  40  40  40   0  23, Quantity: W-VELOCITY
  29 Nodes:  40  40   0  40   0  23, Quantity: TEMPERATURE
  30 Nodes:  40  40   0  40   0  23, Quantity: U-VELOCITY
  31 Nodes:  40  40   0  40   0  23, Quantity: V-VELOCITY
  32 Nodes:  40  40   0  40   0  23, Quantity: W-VELOCITY
  33 Nodes:  21  21   0  40   0  23, Quantity: VELOCITY
  34 Nodes:   0  40  21  21   0  23, Quantity: VELOCITY
  35 Nodes:   0  40  40  40   0  23, Quantity: VELOCITY
  36 Nodes:  40  40   0  40   0  23, Quantity: VELOCITY
  37 Nodes:  21  21   0  40   0  23, Quantity: WATER VAPOR MASS FRACTION
  38 Nodes:   0  40  21  21   0  23, Quantity: WATER VAPOR MASS FRACTION
  39 Nodes:   0  40  40  40   0  23, Quantity: WATER VAPOR MASS FRACTION
  40 Nodes:  40  40   0  40   0  23, Quantity: WATER VAPOR MASS FRACTION


 Boundary File Information

   Sampling Interval (s)             0.800

   1 Quantity: water_droplets AMPUA


 Radiation Model Information

   Number of control angles  104
   Time step increment         3
   Angle increment             5
   Theta band N_phi   Solid angle
     1:        4     0.120
     2:       12     0.114
     3:       16     0.127
     4:       20     0.120
     5:       20     0.120
     6:       16     0.127
     7:       12     0.114
     8:        4     0.120
   Using gray gas absorption.
   Mean beam length  1.000E-01 m
 
 

 Run Time Diagnostics

       Time Step       1   October 14, 2021  14:14:02
       Step Size:    0.521E-01 s, Total Time:       0.05 s
       Pressure Iterations:      1
       Maximum Velocity Error:  0.40E-02 on Mesh   1 at (  39  41   4)
       Maximum Pressure Error:  0.74E-05 on Mesh   3 at (  38   2   3)
       ---------------------------------------------------------------
       Mesh    1
       Max CFL number:  0.45E-01 at (  19,  36,   5)
       Max divergence:  0.93E-06 at (   3,  13,   2)
       Min divergence: -0.51E-03 at (  39,  38,   6)
       Max VN number:   0.25E-01 at (  17,   1,  19)
       Mesh    2
       Max CFL number:  0.45E-01 at (  35,  21,   8)
       Max divergence:  0.13E-05 at (  33,   3,   2)
       Min divergence: -0.52E-03 at (   4,  38,   6)
       Max VN number:   0.27E-01 at (   3,  33,   1)
       Mesh    3
       Max CFL number:  0.44E-01 at (  39,  12,  10)
       Max divergence:  0.91E-06 at (   5,  32,   2)
       Min divergence: -0.52E-03 at (  39,   3,   6)
       Max VN number:   0.21E-01 at (  18,  35,   1)
       Mesh    4
       Max CFL number:  0.45E-01 at (   8,  37,  10)
       Max divergence:  0.10E-05 at (  22,  39,   2)
       Min divergence: -0.50E-03 at (   4,   2,   6)
       Max VN number:   0.32E-01 at (  35,  40,  19)
       Mesh    5
       Max CFL number:  0.44E-01 at (   8,   6,  16)
       Max divergence:  0.18E-05 at (  25,  10,  21)
       Min divergence: -0.42E-05 at (  38,  39,   5)
       Max VN number:   0.34E-01 at (  32,  10,  18)
       Mesh    6
       Max CFL number:  0.46E-01 at (  38,  29,  14)
       Max divergence:  0.18E-05 at (  32,   8,  21)
       Min divergence: -0.41E-05 at (   2,  39,   6)
       Max VN number:   0.32E-01 at (  31,  25,  20)
       Mesh    7
       Max CFL number:  0.43E-01 at (   7,  38,   3)
       Max divergence:  0.20E-05 at (  34,  31,  21)
       Min divergence: -0.42E-05 at (  40,   5,   3)
       Max VN number:   0.34E-01 at (   7,  33,  20)
       Mesh    8
       Max CFL number:  0.44E-01 at (  36,  15,   6)
       Max divergence:  0.19E-05 at (  31,   8,  21)
       Min divergence: -0.39E-05 at (   3,   1,   2)
       Max VN number:   0.33E-01 at (  22,  16,  20)
 
       Time Step       2   October 14, 2021  14:14:02
       Step Size:    0.521E-01 s, Total Time:       0.10 s
       Pressure Iterations:      1
       Maximum Velocity Error:  0.18E-01 on Mesh   1 at (  39  41   6)
       Maximum Pressure Error:  0.79E-03 on Mesh   4 at (   3   4   6)
       ---------------------------------------------------------------
       Mesh    1
       Max CFL number:  0.45E-01 at (  19,  36,   5)
       Max divergence:  0.26E+00 at (  38,  38,   6)
       Min divergence: -0.53E-05 at (  39,  40,  20)
       Max VN number:   0.26E-01 at (  17,   1,  19)
       Mesh    2
       Max CFL number:  0.44E-01 at (  35,  21,   8)
       Max divergence:  0.26E+00 at (   2,  38,   6)
       Min divergence: -0.52E-05 at (   2,  38,  22)
       Max VN number:   0.27E-01 at (   3,  33,   1)
       Mesh    3
       Max CFL number:  0.43E-01 at (  39,  12,  10)
       Max divergence:  0.29E+00 at (  38,   3,   6)
       Min divergence: -0.54E-05 at (  40,   2,  19)
       Max VN number:   0.21E-01 at (  18,  35,   1)
       Mesh    4
       Max CFL number:  0.44E-01 at (   8,  37,  10)
       Max divergence:  0.28E+00 at (   4,   3,   6)
       Min divergence: -0.48E-05 at (   3,   1,  22)
       Max VN number:   0.32E-01 at (  35,  40,  19)
       Mesh    5
       Max CFL number:  0.44E-01 at (   8,   6,  16)
       Max divergence:  0.18E-05 at (  25,  10,  21)
       Min divergence: -0.42E-05 at (  38,  39,   5)
       Max VN number:   0.35E-01 at (  38,   6,  17)
       Mesh    6
       Max CFL number:  0.45E-01 at (  38,  29,  14)
       Max divergence:  0.18E-05 at (  22,  15,  22)
       Min divergence: -0.41E-05 at (   2,  39,   6)
       Max VN number:   0.29E-01 at (  22,  21,  22)
       Mesh    7
       Max CFL number:  0.43E-01 at (   7,  38,   3)
       Max divergence:  0.20E-05 at (  34,  31,  21)
       Min divergence: -0.42E-05 at (  40,   5,   3)
       Max VN number:   0.30E-01 at (  18,  23,  19)
       Mesh    8
       Max CFL number:  0.44E-01 at (  36,  15,   6)
       Max divergence:  0.19E-05 at (  31,   8,  21)
       Min divergence: -0.39E-05 at (   3,   1,   2)
       Max VN number:   0.29E-01 at (  38,  18,  19)
 
       Time Step       3   October 14, 2021  14:14:02
       Step Size:    0.521E-01 s, Total Time:       0.16 s
       Pressure Iterations:      1
       Maximum Velocity Error:  0.70E-02 on Mesh   2 at (   1  41   7)
       Maximum Pressure Error:  0.20E+00 on Mesh   2 at (   4  37   6)
       ---------------------------------------------------------------
       Mesh    1
       Max CFL number:  0.46E-01 at (  40,  38,   6)
       Max divergence:  0.31E+00 at (  40,  37,   6)
       Min divergence: -0.19E-02 at (  40,  39,   6)
       Max VN number:   0.25E-01 at (  17,   1,  19)
       Mesh    2
       Max CFL number:  0.46E-01 at (   2,  37,   6)
       Max divergence:  0.21E+00 at (   4,  39,   6)
       Min divergence: -0.35E-05 at (   2,  38,  22)
       Max VN number:   0.27E-01 at (   3,  33,   1)
       Mesh    3
       Max CFL number:  0.45E-01 at (  38,   4,   6)
       Max divergence:  0.24E+00 at (  40,   4,   6)
       Min divergence: -0.20E-02 at (  39,   1,   6)
       Max VN number:   0.21E-01 at (  18,  35,   1)
       Mesh    4
       Max CFL number:  0.45E-01 at (   3,   3,   6)
       Max divergence:  0.24E+00 at (   4,   3,   6)
       Min divergence: -0.30E-05 at (   3,   1,  22)
       Max VN number:   0.31E-01 at (  35,  40,  19)
       Mesh    5
       Max CFL number:  0.44E-01 at (   8,   6,  16)
       Max divergence:  0.18E-05 at (  25,  10,  21)
       Min divergence: -0.38E-05 at (  38,  39,   5)
       Max VN number:   0.36E-01 at (  38,   6,  17)
       Mesh    6
       Max CFL number:  0.45E-01 at (  38,  29,  14)
       Max divergence:  0.18E-05 at (  22,  15,  22)
       Min divergence: -0.26E-05 at (   2,  35,  21)
       Max VN number:   0.29E-01 at (  22,  21,  22)
       Mesh    7
       Max CFL number:  0.43E-01 at (  33,  39,   4)
       Max divergence:  0.20E-05 at (  34,  31,  21)
       Min divergence: -0.33E-05 at (  39,  19,  19)
       Max VN number:   0.30E-01 at (   4,  23,  17)
       Mesh    8
       Max CFL number:  0.43E-01 at (  36,  15,   6)
       Max divergence:  0.19E-05 at (  31,   8,  21)
       Min divergence: -0.30E-05 at (   3,   1,   2)
       Max VN number:   0.29E-01 at (  38,  18,  19)
 
       Time Step       4   October 14, 2021  14:14:02
       Step Size:    0.521E-01 s, Total Time:       0.21 s
       Pressure Iterations:      2
       Maximum Velocity Error:  0.22E-01 on Mesh   3 at (  41   1   6)
       Maximum Pressure Error:  0.14E+01 on Mesh   4 at (   4   3   6)
       ---------------------------------------------------------------
       Mesh    1
       Max CFL number:  0.46E-01 at (  40,  37,   6)
       Max divergence:  0.11E+01 at (  38,  38,   6)
       Min divergence: -0.43E-05 at (  39,  40,  20)
       Max VN number:   0.25E-01 at (  17,   1,  19)
       Mesh    2
       Max CFL number:  0.47E-01 at (   2,  37,   6)
       Max divergence:  0.11E+01 at (   4,  38,   6)
       Min divergence: -0.35E-05 at (   2,  38,  22)
       Max VN number:   0.27E-01 at (   3,  33,   1)
       Mesh    3
       Max CFL number:  0.44E-01 at (  38,   4,   6)
       Max divergence:  0.11E+01 at (  38,   3,   6)
       Min divergence: -0.36E-05 at (  38,   2,  21)
       Max VN number:   0.21E-01 at (  38,   5,   5)
       Mesh    4
       Max CFL number:  0.44E-01 at (   8,  37,  10)
       Max divergence:  0.11E+01 at (   4,   4,   6)
       Min divergence: -0.30E-05 at (   3,   1,  22)
       Max VN number:   0.31E-01 at (  35,  40,  19)
       Mesh    5
       Max CFL number:  0.43E-01 at (   8,   6,  16)
       Max divergence:  0.18E-05 at (  25,  10,  21)
       Min divergence: -0.38E-05 at (  38,  39,   5)
       Max VN number:   0.36E-01 at (  38,   6,  17)
       Mesh    6
       Max CFL number:  0.45E-01 at (  38,  29,  14)
       Max divergence:  0.18E-05 at (  22,  15,  22)
       Min divergence: -0.26E-05 at (   2,  35,  21)
       Max VN number:   0.29E-01 at (  22,  21,  22)
       Mesh    7
       Max CFL number:  0.42E-01 at (  33,  39,   4)
       Max divergence:  0.20E-05 at (  34,  31,  21)
       Min divergence: -0.32E-05 at (  39,  19,  19)
       Max VN number:   0.29E-01 at (  18,  23,  19)
       Mesh    8
       Max CFL number:  0.43E-01 at (  36,  15,   6)
       Max divergence:  0.19E-05 at (  31,   8,  21)
       Min divergence: -0.30E-05 at (   3,   1,   2)
       Max VN number:   0.29E-01 at (  38,  18,  19)
 
       Time Step       5   October 14, 2021  14:14:03
       Step Size:    0.521E-01 s, Total Time:       0.26 s
       Pressure Iterations:      2
       Maximum Velocity Error:  0.10E-01 on Mesh   1 at (  38  41   7)
       Maximum Pressure Error:  0.62E+01 on Mesh   2 at (   4  37   6)
       ---------------------------------------------------------------
       Mesh    1
       Max CFL number:  0.12E+00 at (  37,  39,   6)
       Max divergence:  0.63E+00 at (  37,  37,   6)
       Min divergence: -0.43E-05 at (  39,  40,  20)
       Max VN number:   0.25E-01 at (  17,   1,  19)
       Mesh    2
       Max CFL number:  0.13E+00 at (   4,  37,   6)
       Max divergence:  0.61E+00 at (   4,  37,   6)
       Min divergence: -0.35E-05 at (   2,  38,  22)
       Max VN number:   0.26E-01 at (   3,  33,   1)
       Mesh    3
       Max CFL number:  0.12E+00 at (  38,   4,   6)
       Max divergence:  0.70E+00 at (  37,   4,   6)
       Min divergence: -0.36E-05 at (  38,   2,  21)
       Max VN number:   0.20E-01 at (  18,  35,   1)
       Mesh    4
       Max CFL number:  0.12E+00 at (   4,   4,   6)
       Max divergence:  0.63E+00 at (   4,   3,   6)
       Min divergence: -0.30E-05 at (   3,   1,  22)
       Max VN number:   0.31E-01 at (  35,  40,  19)
       Mesh    5
       Max CFL number:  0.43E-01 at (   8,   6,  16)
       Max divergence:  0.18E-05 at (  25,  10,  21)
       Min divergence: -0.38E-05 at (  38,  39,   5)
       Max VN number:   0.36E-01 at (  38,   6,  17)
       Mesh    6
       Max CFL number:  0.45E-01 at (  38,  29,  14)
       Max divergence:  0.18E-05 at (  22,  15,  22)
       Min divergence: -0.26E-05 at (   2,  35,  21)
       Max VN number:   0.29E-01 at (  22,  21,  22)
       Mesh    7
       Max CFL number:  0.42E-01 at (  33,  39,   4)
       Max divergence:  0.20E-05 at (  34,  31,  21)
       Min divergence: -0.32E-05 at (  39,  19,  19)
       Max VN number:   0.29E-01 at (  18,  23,  19)
       Mesh    8
       Max CFL number:  0.43E-01 at (  36,  15,   6)
       Max divergence:  0.19E-05 at (  31,   8,  21)
       Min divergence: -0.30E-05 at (   3,   1,   2)
       Max VN number:   0.29E-01 at (  38,  18,  19)
 
       Time Step       6   October 14, 2021  14:14:03
       Step Size:    0.521E-01 s, Total Time:       0.31 s
       Pressure Iterations:      7
       Maximum Velocity Error:  0.24E-01 on Mesh   1 at (  40  41   6)
       Maximum Pressure Error:  0.11E+02 on Mesh   2 at (   4  37   6)
       ---------------------------------------------------------------
       Mesh    1
       Max CFL number:  0.83E-01 at (  37,  37,   6)
       Max divergence:  0.27E+01 at (  38,  40,   6)
       Min divergence: -0.26E-05 at (  39,  40,  20)
       Max VN number:   0.25E-01 at (  17,   1,  19)
       Mesh    2
       Max CFL number:  0.82E-01 at (   4,  39,   6)
       Max divergence:  0.24E+01 at (   3,  40,   6)
       Min divergence: -0.27E-05 at (  10,  38,  22)
       Max VN number:   0.31E-01 at (   5,  40,   5)
       Mesh    3
       Max CFL number:  0.89E-01 at (  38,   4,   6)
       Max divergence:  0.28E+01 at (  37,   1,   6)
       Min divergence: -0.22E-05 at (  40,   5,  21)
       Max VN number:   0.21E-01 at (  38,   5,   5)
       Mesh    4
       Max CFL number:  0.86E-01 at (   4,   3,   6)
       Max divergence:  0.26E+01 at (   3,   1,   6)
       Min divergence: -0.21E-05 at (   7,  17,  18)
       Max VN number:   0.31E-01 at (  35,  40,  19)
       Mesh    5
       Max CFL number:  0.43E-01 at (   8,   6,  16)
       Max divergence:  0.18E-05 at (  25,  10,  21)
       Min divergence: -0.27E-05 at (  38,  39,   5)
       Max VN number:   0.36E-01 at (  38,   6,  17)
       Mesh    6
       Max CFL number:  0.44E-01 at (  38,  29,  14)
       Max divergence:  0.18E-05 at (  22,  15,  22)
       Min divergence: -0.25E-05 at (   2,  35,  21)
       Max VN number:   0.29E-01 at (  22,  21,  22)
       Mesh    7
       Max CFL number:  0.42E-01 at (  33,  39,   4)
       Max divergence:  0.20E-05 at (  34,  31,  21)
       Min divergence: -0.27E-05 at (  39,  19,  19)
       Max VN number:   0.29E-01 at (  18,  23,  19)
       Mesh    8
       Max CFL number:  0.43E-01 at (  36,  15,   6)
       Max divergence:  0.19E-05 at (  31,   8,  21)
       Min divergence: -0.25E-05 at (   3,   3,   8)
       Max VN number:   0.29E-01 at (  38,  18,  19)
 
       Time Step       7   October 14, 2021  14:14:03
       Step Size:    0.521E-01 s, Total Time:       0.36 s
       Pressure Iterations:      7
       Maximum Velocity Error:  0.20E-01 on Mesh   1 at (  40  41   6)
       Maximum Pressure Error:  0.17E+02 on Mesh   2 at (   4  38   6)
       ---------------------------------------------------------------
       Mesh    1
       Max CFL number:  0.30E+00 at (  37,  40,   6)
       Max divergence:  0.15E+01 at (  37,  37,   6)
       Min divergence: -0.25E-05 at (  39,  40,  20)
       Max VN number:   0.32E-01 at (  38,  40,   6)
       Mesh    2
       Max CFL number:  0.26E+00 at (   4,  40,   6)
       Max divergence:  0.15E+01 at (   4,  40,   6)
       Min divergence: -0.27E-05 at (  10,  38,  22)
       Max VN number:   0.31E-01 at (   1,  39,   6)
       Mesh    3
       Max CFL number:  0.31E+00 at (  37,   1,   6)
       Max divergence:  0.15E+01 at (  37,   4,   6)
       Min divergence: -0.22E-05 at (  40,   5,  21)
       Max VN number:   0.32E-01 at (  38,   1,   6)
       Mesh    4
       Max CFL number:  0.27E+00 at (   3,   1,   6)
       Max divergence:  0.15E+01 at (   4,   4,   6)
       Min divergence: -0.21E-05 at (   7,  17,  18)
       Max VN number:   0.31E-01 at (  35,  40,  19)
       Mesh    5
       Max CFL number:  0.42E-01 at (   8,   6,  16)
       Max divergence:  0.18E-05 at (  25,  10,  21)
       Min divergence: -0.27E-05 at (  38,  39,   5)
       Max VN number:   0.36E-01 at (  38,   6,  17)
       Mesh    6
       Max CFL number:  0.44E-01 at (  38,  29,  14)
       Max divergence:  0.18E-05 at (  22,  15,  22)
       Min divergence: -0.25E-05 at (   2,  35,  21)
       Max VN number:   0.29E-01 at (  22,  21,  22)
       Mesh    7
       Max CFL number:  0.42E-01 at (  33,  39,   4)
       Max divergence:  0.20E-05 at (  34,  31,  21)
       Min divergence: -0.27E-05 at (  39,  19,  19)
       Max VN number:   0.29E-01 at (  18,  23,  19)
       Mesh    8
       Max CFL number:  0.42E-01 at (  36,  15,   6)
       Max divergence:  0.18E-05 at (  31,   8,  21)
       Min divergence: -0.25E-05 at (   3,   3,   8)
       Max VN number:   0.29E-01 at (  38,  18,  19)
 
       Time Step       8   October 14, 2021  14:14:04
       Step Size:    0.521E-01 s, Total Time:       0.42 s
       Pressure Iterations:      5
       Maximum Velocity Error:  0.23E-01 on Mesh   1 at (  41  40   6)
       Maximum Pressure Error:  0.10E+02 on Mesh   3 at (  38   2   6)
       ---------------------------------------------------------------
       Mesh    1
       Max CFL number:  0.21E+00 at (  37,  37,   7)
       Max divergence:  0.35E+01 at (  40,  40,   6)
       Min divergence: -0.23E-05 at (  40,  40,  22)
       Max VN number:   0.39E-01 at (  36,  40,   5)
       Mesh    2
       Max CFL number:  0.21E+00 at (   4,  39,   6)
       Max divergence:  0.35E+01 at (   1,  40,   6)
       Min divergence: -0.26E-05 at (  10,  38,  22)
       Max VN number:   0.45E-01 at (   2,  36,   5)
       Mesh    3
       Max CFL number:  0.21E+00 at (  38,   4,   6)
       Max divergence:  0.33E+01 at (  40,   1,   6)
       Min divergence: -0.20E-05 at (  40,   5,  21)
       Max VN number:   0.28E-01 at (  37,   1,   4)
       Mesh    4
       Max CFL number:  0.21E+00 at (   4,   3,   6)
       Max divergence:  0.35E+01 at (   1,   1,   6)
       Min divergence: -0.20E-05 at (   7,  17,  18)
       Max VN number:   0.31E-01 at (  35,  40,  19)
       Mesh    5
       Max CFL number:  0.42E-01 at (   8,   6,  16)
       Max divergence:  0.18E-05 at (  25,  10,  21)
       Min divergence: -0.27E-05 at (  38,  39,   5)
       Max VN number:   0.35E-01 at (  38,   6,  17)
       Mesh    6
       Max CFL number:  0.44E-01 at (  38,  29,  14)
       Max divergence:  0.18E-05 at (  22,  15,  22)
       Min divergence: -0.25E-05 at (   2,  35,  21)
       Max VN number:   0.29E-01 at (  22,  21,  22)
       Mesh    7
       Max CFL number:  0.42E-01 at (  33,  39,   4)
       Max divergence:  0.20E-05 at (  34,  31,  21)
       Min divergence: -0.26E-05 at (  39,  19,  19)
       Max VN number:   0.29E-01 at (  15,  21,  21)
       Mesh    8
       Max CFL number:  0.42E-01 at (  36,  15,   6)
       Max divergence:  0.18E-05 at (  31,   8,  21)
       Min divergence: -0.25E-05 at (   3,   3,   8)
       Max VN number:   0.29E-01 at (  38,  18,  19)
 
       Time Step       9   October 14, 2021  14:14:04
       Step Size:    0.521E-01 s, Total Time:       0.47 s
       Pressure Iterations:      7
       Maximum Velocity Error:  0.22E-01 on Mesh   1 at (  41  40   6)
       Maximum Pressure Error:  0.18E+02 on Mesh   4 at (   2   4   6)
       ---------------------------------------------------------------
       Mesh    1
       Max CFL number:  0.34E+00 at (  40,  40,   6)
       Max divergence:  0.16E+01 at (  37,  37,   6)
       Min divergence: -0.15E-05 at (  14,  34,  18)
       Max VN number:   0.43E-01 at (  37,  37,   7)
       Mesh    2
       Max CFL number:  0.35E+00 at (   1,  40,   6)
       Max divergence:  0.16E+01 at (   4,  40,   6)
       Min divergence: -0.17E-05 at (  10,  22,  21)
       Max VN number:   0.46E-01 at (   4,  37,   7)
       Mesh    3
       Max CFL number:  0.34E+00 at (  40,   2,   6)
       Max divergence:  0.16E+01 at (  37,   4,   6)
       Min divergence: -0.16E-05 at (   9,   2,  20)
       Max VN number:   0.42E-01 at (  37,   4,   7)
       Mesh    4
       Max CFL number:  0.34E+00 at (   1,   1,   6)
       Max divergence:  0.16E+01 at (   4,   2,   6)
       Min divergence: -0.15E-05 at (   4,  27,  21)
       Max VN number:   0.45E-01 at (   4,   4,   7)
       Mesh    5
       Max CFL number:  0.42E-01 at (   8,   6,  16)
       Max divergence:  0.18E-05 at (  25,  10,  21)
       Min divergence: -0.20E-05 at (   7,  29,  17)
       Max VN number:   0.35E-01 at (  38,   6,  17)
       Mesh    6
       Max CFL number:  0.43E-01 at (  38,  29,  14)
       Max divergence:  0.18E-05 at (  22,  15,  22)
       Min divergence: -0.22E-05 at (   2,  35,  21)
       Max VN number:   0.28E-01 at (  22,  21,  22)
       Mesh    7
       Max CFL number:  0.42E-01 at (  33,  39,   4)
       Max divergence:  0.20E-05 at (  34,  31,  21)
       Min divergence: -0.24E-05 at (  39,  19,  19)
       Max VN number:   0.29E-01 at (  15,  21,  21)
       Mesh    8
       Max CFL number:  0.42E-01 at (  36,  15,   6)
       Max divergence:  0.18E-05 at (  31,   8,  21)
       Min divergence: -0.21E-05 at (  18,  18,  19)
       Max VN number:   0.29E-01 at (  38,  18,  19)
 
       Time Step      10   October 14, 2021  14:14:04
       Step Size:    0.521E-01 s, Total Time:       0.52 s
       Pressure Iterations:      4
       Maximum Velocity Error:  0.20E-01 on Mesh   1 at (  41  40   6)
       Maximum Pressure Error:  0.88E+01 on Mesh   3 at (  39   2   6)
       ---------------------------------------------------------------
       Mesh    1
       Max CFL number:  0.38E+00 at (  37,  37,   7)
       Max divergence:  0.30E+01 at (  40,  40,   6)
       Min divergence: -0.15E-05 at (  14,  34,  18)
       Max VN number:   0.63E-01 at (  37,  37,   7)
       Mesh    2
       Max CFL number:  0.36E+00 at (   4,  37,   7)
       Max divergence:  0.30E+01 at (   1,  40,   6)
       Min divergence: -0.17E-05 at (  10,  22,  21)
       Max VN number:   0.67E-01 at (   4,  37,   7)
       Mesh    3
       Max CFL number:  0.36E+00 at (  37,   4,   6)
       Max divergence:  0.31E+01 at (  40,   1,   6)
       Min divergence: -0.16E-05 at (   9,   2,  20)
       Max VN number:   0.62E-01 at (  37,   4,   7)
       Mesh    4
       Max CFL number:  0.38E+00 at (   4,   4,   6)
       Max divergence:  0.30E+01 at (   1,   1,   6)
       Min divergence: -0.15E-05 at (   4,  27,  21)
       Max VN number:   0.67E-01 at (   4,   4,   7)
       Mesh    5
       Max CFL number:  0.42E-01 at (   8,   6,  16)
       Max divergence:  0.18E-05 at (  25,  10,  21)
       Min divergence: -0.20E-05 at (   7,  29,  17)
       Max VN number:   0.35E-01 at (  38,   6,  17)
       Mesh    6
       Max CFL number:  0.43E-01 at (  38,  29,  14)
       Max divergence:  0.18E-05 at (  22,  15,  22)
       Min divergence: -0.22E-05 at (   2,  35,  21)
       Max VN number:   0.28E-01 at (  22,  21,  22)
       Mesh    7
       Max CFL number:  0.42E-01 at (  33,  39,   4)
       Max divergence:  0.20E-05 at (  34,  31,  21)
       Min divergence: -0.24E-05 at (  39,  19,  19)
       Max VN number:   0.29E-01 at (  15,  21,  21)
       Mesh    8
       Max CFL number:  0.41E-01 at (  36,  15,   6)
       Max divergence:  0.18E-05 at (  31,   8,  21)
       Min divergence: -0.21E-05 at (  18,  18,  19)
       Max VN number:   0.28E-01 at (  38,  18,  19)
 
       Time Step      20   October 14, 2021  14:14:07
       Step Size:    0.231E-01 s, Total Time:       0.90 s
       Pressure Iterations:      2
       Maximum Velocity Error:  0.11E-01 on Mesh   1 at (  37  41   7)
       Maximum Pressure Error:  0.14E+02 on Mesh   2 at (   2  39   6)
       ---------------------------------------------------------------
       Mesh    1
       Max CFL number:  0.88E+00 at (  38,  38,   6)
       Max divergence:  0.35E+01 at (  40,  38,   6)
       Min divergence: -0.77E-06 at (   1,  29,   7)
       Max VN number:   0.12E+00 at (  38,  38,   7)
       Mesh    2
       Max CFL number:  0.90E+00 at (   3,  38,   6)
       Max divergence:  0.34E+01 at (   1,  38,   6)
       Min divergence: -0.56E-01 at (   4,  37,   9)
       Max VN number:   0.11E+00 at (   4,  37,   8)
       Mesh    3
       Max CFL number:  0.88E+00 at (  38,   3,   6)
       Max divergence:  0.35E+01 at (  38,   1,   6)
       Min divergence: -0.36E-01 at (  40,   4,   9)
       Max VN number:   0.12E+00 at (  40,   3,   7)
       Mesh    4
       Max CFL number:  0.88E+00 at (   3,   3,   6)
       Max divergence:  0.34E+01 at (   3,   1,   6)
       Min divergence: -0.33E-01 at (   4,   4,   9)
       Max VN number:   0.12E+00 at (   3,   3,   7)
       Mesh    5
       Max CFL number:  0.17E-01 at (   8,   6,  16)
       Max divergence:  0.17E-05 at (  25,  10,  21)
       Min divergence: -0.18E-05 at (   7,  29,  17)
       Max VN number:   0.15E-01 at (  38,   6,  17)
       Mesh    6
       Max CFL number:  0.19E-01 at (  14,  33,   2)
       Max divergence:  0.20E-05 at (   4,  38,   2)
       Min divergence: -0.19E-05 at (  26,  20,  18)
       Max VN number:   0.12E-01 at (  22,  21,  22)
       Mesh    7
       Max CFL number:  0.18E-01 at (  32,  35,   2)
       Max divergence:  0.19E-05 at (  34,  31,  21)
       Min divergence: -0.21E-05 at (  39,  19,  19)
       Max VN number:   0.13E-01 at (  15,  21,  21)
       Mesh    8
       Max CFL number:  0.18E-01 at (   6,   4,   3)
       Max divergence:  0.18E-05 at (  31,   8,  21)
       Min divergence: -0.20E-05 at (  18,  18,  19)
       Max VN number:   0.12E-01 at (  38,  18,  19)
 
       Time Step      30   October 14, 2021  14:14:10
       Step Size:    0.170E-01 s, Total Time:       1.10 s
       Pressure Iterations:      2
       Maximum Velocity Error:  0.22E-01 on Mesh   2 at (   3  41   8)
       Maximum Pressure Error:  0.63E+02 on Mesh   4 at (   2   2  10)
       ---------------------------------------------------------------
       Mesh    1
       Max CFL number:  0.10E+01 at (  39,  40,   8)
       Max divergence:  0.43E+01 at (  37,  40,   6)
       Min divergence: -0.10E+01 at (  39,  39,  10)
       Max VN number:   0.25E+00 at (  37,  40,   6)
       Mesh    2
       Max CFL number:  0.99E+00 at (   2,  40,   8)
       Max divergence:  0.50E+01 at (   1,  37,   6)
       Min divergence: -0.10E+01 at (   2,  39,  10)
       Max VN number:   0.25E+00 at (   1,  37,   6)
       Mesh    3
       Max CFL number:  0.93E+00 at (  39,   2,   7)
       Max divergence:  0.47E+01 at (  40,   4,   6)
       Min divergence: -0.10E+01 at (  40,   4,  11)
       Max VN number:   0.25E+00 at (  37,   1,   6)
       Mesh    4
       Max CFL number:  0.91E+00 at (   2,   1,   8)
       Max divergence:  0.44E+01 at (   1,   4,   6)
       Min divergence: -0.14E+01 at (   2,   2,  10)
       Max VN number:   0.25E+00 at (   4,   1,   6)
       Mesh    5
       Max CFL number:  0.16E-01 at (  37,  36,   3)
       Max divergence:  0.42E-04 at (  40,  40,   1)
       Min divergence: -0.14E-05 at (   2,  39,  16)
       Max VN number:   0.11E-01 at (  38,   6,  17)
       Mesh    6
       Max CFL number:  0.17E-01 at (   7,  33,   1)
       Max divergence:  0.50E-04 at (   5,  40,   1)
       Min divergence: -0.14E-05 at (   3,  26,  20)
       Max VN number:   0.90E-02 at (  22,  21,  22)
       Mesh    7
       Max CFL number:  0.17E-01 at (  39,   6,   1)
       Max divergence:  0.51E-04 at (  40,   5,   1)
       Min divergence: -0.15E-05 at (   1,   3,  16)
       Max VN number:   0.98E-02 at (  15,  21,  21)
       Mesh    8
       Max CFL number:  0.17E-01 at (   6,   4,   3)
       Max divergence:  0.62E-04 at (   5,   5,   1)
       Min divergence: -0.14E-05 at (  29,  39,  16)
       Max VN number:   0.87E-02 at (  38,  18,  19)
 
       Time Step      40   October 14, 2021  14:14:13
       Step Size:    0.114E-01 s, Total Time:       1.23 s
       Pressure Iterations:      3
       Maximum Velocity Error:  0.19E-01 on Mesh   2 at (   2  41  10)
       Maximum Pressure Error:  0.13E+03 on Mesh   3 at (  39   1   6)
       ---------------------------------------------------------------
       Mesh    1
       Max CFL number:  0.88E+00 at (  39,  40,   8)
       Max divergence:  0.39E+01 at (  39,  38,   6)
       Min divergence: -0.11E+01 at (  39,  39,  13)
       Max VN number:   0.18E+00 at (  40,  40,  10)
       Mesh    2
       Max CFL number:  0.90E+00 at (   2,  40,  10)
       Max divergence:  0.38E+01 at (   2,  38,   6)
       Min divergence: -0.13E+01 at (   2,  39,  13)
       Max VN number:   0.18E+00 at (   1,  40,   9)
       Mesh    3
       Max CFL number:  0.93E+00 at (  40,   2,   8)
       Max divergence:  0.67E+01 at (  40,   2,   6)
       Min divergence: -0.13E+01 at (  40,   5,  12)
       Max VN number:   0.15E+00 at (  40,   1,   8)
       Mesh    4
       Max CFL number:  0.93E+00 at (   2,   1,  10)
       Max divergence:  0.38E+01 at (   2,   3,   6)
       Min divergence: -0.14E+01 at (   2,   2,  13)
       Max VN number:   0.16E+00 at (   1,   1,   9)
       Mesh    5
       Max CFL number:  0.15E-01 at (  38,  37,   1)
       Max divergence:  0.85E-04 at (  37,  37,   1)
       Min divergence: -0.11E-05 at (   2,  39,  16)
       Max VN number:   0.74E-02 at (  38,   6,  17)
       Mesh    6
       Max CFL number:  0.15E-01 at (   3,  35,   2)
       Max divergence:  0.76E-04 at (   5,  36,   1)
       Min divergence: -0.11E-05 at (   3,  15,  22)
       Max VN number:   0.60E-02 at (  22,  21,  22)
       Mesh    7
       Max CFL number:  0.16E-01 at (  36,   3,   1)
       Max divergence:  0.10E-03 at (  37,   4,   1)
       Min divergence: -0.12E-05 at (  13,   3,  22)
       Max VN number:   0.66E-02 at (  15,  21,  21)
       Mesh    8
       Max CFL number:  0.15E-01 at (   2,   3,   1)
       Max divergence:  0.80E-04 at (   1,   1,   1)
       Min divergence: -0.12E-05 at (  19,  24,  22)
       Max VN number:   0.58E-02 at (  38,  18,  19)
 
       Time Step      50   October 14, 2021  14:14:16
       Step Size:    0.114E-01 s, Total Time:       1.34 s
       Pressure Iterations:      3
       Maximum Velocity Error:  0.20E-01 on Mesh   1 at (  40  41  10)
       Maximum Pressure Error:  0.71E+02 on Mesh   3 at (  40   1  12)
       ---------------------------------------------------------------
       Mesh    1
       Max CFL number:  0.98E+00 at (  40,  40,   9)
       Max divergence:  0.39E+01 at (  38,  40,   6)
       Min divergence: -0.10E+01 at (  40,  35,  14)
       Max VN number:   0.16E+00 at (  40,  40,  12)
       Mesh    2
       Max CFL number:  0.84E+00 at (   1,  40,  10)
       Max divergence:  0.39E+01 at (   3,  39,   6)
       Min divergence: -0.12E+01 at (   2,  39,  15)
       Max VN number:   0.23E+00 at (   1,  40,  11)
       Mesh    3
       Max CFL number:  0.91E+00 at (  40,   1,  12)
       Max divergence:  0.39E+01 at (  39,   3,   6)
       Min divergence: -0.19E+01 at (  40,   1,  12)
       Max VN number:   0.22E+00 at (  40,   1,  12)
       Mesh    4
       Max CFL number:  0.84E+00 at (   2,   1,  10)
       Max divergence:  0.39E+01 at (   3,   2,   6)
       Min divergence: -0.87E+00 at (   3,   2,  15)
       Max VN number:   0.14E+00 at (   1,   1,  12)
       Mesh    5
       Max CFL number:  0.23E-01 at (  38,  37,   1)
       Max divergence:  0.14E-03 at (  40,  40,   1)
       Min divergence: -0.11E-05 at (   6,  20,  22)
       Max VN number:   0.74E-02 at (  38,   6,  17)
       Mesh    6
       Max CFL number:  0.24E-01 at (   3,  37,   1)
       Max divergence:  0.17E-03 at (   4,  38,   1)
       Min divergence: -0.11E-05 at (   3,  15,  22)
       Max VN number:   0.60E-02 at (  22,  21,  22)
       Mesh    7
       Max CFL number:  0.23E-01 at (  36,   3,   1)
       Max divergence:  0.13E-03 at (  36,   4,   1)
       Min divergence: -0.12E-05 at (  13,   3,  22)
       Max VN number:   0.66E-02 at (  15,  21,  21)
       Mesh    8
       Max CFL number:  0.22E-01 at (   2,   3,   1)
       Max divergence:  0.16E-03 at (   4,   1,   1)
       Min divergence: -0.12E-05 at (  19,  24,  22)
       Max VN number:   0.58E-02 at (  11,  30,  18)
 
       Time Step      60   October 14, 2021  14:14:19
       Step Size:    0.114E-01 s, Total Time:       1.45 s
       Pressure Iterations:      3
       Maximum Velocity Error:  0.21E-01 on Mesh   3 at (  41   2  14)
       Maximum Pressure Error:  0.79E+02 on Mesh   3 at (  39   1  10)
       ---------------------------------------------------------------
       Mesh    1
       Max CFL number:  0.92E+00 at (  39,  39,  14)
       Max divergence:  0.40E+01 at (  40,  38,   6)
       Min divergence: -0.99E+00 at (  40,  34,  16)
       Max VN number:   0.14E+00 at (  40,  35,  16)
       Mesh    2
       Max CFL number:  0.94E+00 at (   1,  39,  12)
       Max divergence:  0.40E+01 at (   1,  38,   6)
       Min divergence: -0.10E+01 at (   2,  39,  10)
       Max VN number:   0.19E+00 at (   1,  40,  13)
       Mesh    3
       Max CFL number:  0.79E+00 at (  40,   1,  14)
       Max divergence:  0.40E+01 at (  40,   3,   6)
       Min divergence: -0.22E+01 at (  40,   1,  15)
       Max VN number:   0.28E+00 at (  40,   1,  15)
       Mesh    4
       Max CFL number:  0.86E+00 at (   3,   2,  14)
       Max divergence:  0.40E+01 at (   1,   3,   6)
       Min divergence: -0.11E+01 at (   2,   2,  11)
       Max VN number:   0.16E+00 at (   2,   2,  10)
       Mesh    5
       Max CFL number:  0.38E-01 at (  38,  37,   1)
       Max divergence:  0.21E-03 at (  38,  38,   1)
       Min divergence: -0.10E-05 at (   6,  20,  22)
       Max VN number:   0.74E-02 at (  38,   6,  17)
       Mesh    6
       Max CFL number:  0.39E-01 at (   3,  37,   1)
       Max divergence:  0.21E-03 at (   4,  37,   1)
       Min divergence: -0.11E-05 at (   3,  15,  22)
       Max VN number:   0.61E-02 at (  11,  31,  21)
       Mesh    7
       Max CFL number:  0.35E-01 at (  37,   3,   1)
       Max divergence:  0.22E-03 at (  38,   1,   1)
       Min divergence: -0.11E-05 at (  13,   3,  22)
       Max VN number:   0.65E-02 at (  15,  21,  21)
       Mesh    8
       Max CFL number:  0.37E-01 at (   3,   3,   1)
       Max divergence:  0.25E-03 at (   2,   1,   1)
       Min divergence: -0.12E-05 at (  19,  24,  22)
       Max VN number:   0.58E-02 at (  11,  30,  18)
 
       Time Step      70   October 14, 2021  14:14:22
       Step Size:    0.102E-01 s, Total Time:       1.56 s
       Pressure Iterations:      4
       Maximum Velocity Error:  0.18E-01 on Mesh   2 at (   1  41  12)
       Maximum Pressure Error:  0.99E+02 on Mesh   3 at (  39   1  12)
       ---------------------------------------------------------------
       Mesh    1
       Max CFL number:  0.88E+00 at (  40,  39,  12)
       Max divergence:  0.41E+01 at (  40,  38,   6)
       Min divergence: -0.11E+01 at (  40,  39,  12)
       Max VN number:   0.17E+00 at (  40,  39,  11)
       Mesh    2
       Max CFL number:  0.81E+00 at (   2,  39,  15)
       Max divergence:  0.40E+01 at (   3,  40,   6)
       Min divergence: -0.12E+01 at (   1,  40,  10)
       Max VN number:   0.18E+00 at (   1,  40,  11)
       Mesh    3
       Max CFL number:  0.84E+00 at (  40,   1,  10)
       Max divergence:  0.41E+01 at (  40,   3,   6)
       Min divergence: -0.17E+01 at (  40,   1,  18)
       Max VN number:   0.22E+00 at (  40,   1,  18)
       Mesh    4
       Max CFL number:  0.90E+00 at (   1,   1,  11)
       Max divergence:  0.40E+01 at (   3,   1,   6)
       Min divergence: -0.96E+00 at (   1,   1,  11)
       Max VN number:   0.14E+00 at (   1,   1,  10)
       Mesh    5
       Max CFL number:  0.56E-01 at (  38,  37,   1)
       Max divergence:  0.27E-03 at (  40,  39,   1)
       Min divergence: -0.10E-05 at (   6,  20,  22)
       Max VN number:   0.66E-02 at (  38,   6,  17)
       Mesh    6
       Max CFL number:  0.59E-01 at (   3,  37,   1)
       Max divergence:  0.27E-03 at (   3,  38,   1)
       Min divergence: -0.11E-05 at (   3,  15,  22)
       Max VN number:   0.59E-02 at (  11,  31,  21)
       Mesh    7
       Max CFL number:  0.55E-01 at (  40,   2,   1)
       Max divergence:  0.27E-03 at (  38,   3,   1)
       Min divergence: -0.11E-05 at (  13,   3,  22)
       Max VN number:   0.58E-02 at (  15,  21,  21)
       Mesh    8
       Max CFL number:  0.58E-01 at (   3,   2,   1)
       Max divergence:  0.25E-03 at (   3,   3,   1)
       Min divergence: -0.11E-05 at (  19,  24,  22)
       Max VN number:   0.52E-02 at (  11,  30,  18)
 
       Time Step      80   October 14, 2021  14:14:25
       Step Size:    0.733E-02 s, Total Time:       1.64 s
       Pressure Iterations:      4
       Maximum Velocity Error:  0.13E-01 on Mesh   1 at (  40  41  14)
       Maximum Pressure Error:  0.14E+03 on Mesh   2 at (   1  40  14)
       ---------------------------------------------------------------
       Mesh    1
       Max CFL number:  0.77E+00 at (  40,  40,  15)
       Max divergence:  0.42E+01 at (  40,  38,   6)
       Min divergence: -0.17E+01 at (  40,  40,  19)
       Max VN number:   0.12E+00 at (  38,  40,  17)
       Mesh    2
       Max CFL number:  0.94E+00 at (   1,  40,  12)
       Max divergence:  0.41E+01 at (   1,  38,   6)
       Min divergence: -0.17E+01 at (   1,  40,  12)
       Max VN number:   0.18E+00 at (   1,  40,  12)
       Mesh    3
       Max CFL number:  0.68E+00 at (  40,   1,  17)
       Max divergence:  0.42E+01 at (  40,   3,   6)
       Min divergence: -0.16E+01 at (  39,   1,  18)
       Max VN number:   0.13E+00 at (  40,   1,  21)
       Mesh    4
       Max CFL number:  0.74E+00 at (   1,   1,  14)
       Max divergence:  0.41E+01 at (   3,   1,   6)
       Min divergence: -0.84E+00 at (   1,   1,  19)
       Max VN number:   0.12E+00 at (   1,   1,  14)
       Mesh    5
       Max CFL number:  0.69E-01 at (  39,  40,   1)
       Max divergence:  0.31E-03 at (  40,  35,   1)
       Min divergence: -0.10E-05 at (   6,  20,  22)
       Max VN number:   0.47E-02 at (  38,   6,  17)
       Mesh    6
       Max CFL number:  0.72E-01 at (   2,  39,   1)
       Max divergence:  0.65E-03 at (   2,  39,   1)
       Min divergence: -0.11E-05 at (   3,  15,  22)
       Max VN number:   0.47E-02 at (  11,  31,  21)
       Mesh    7
       Max CFL number:  0.94E-01 at (  40,   1,   1)
       Max divergence:  0.11E-02 at (  40,   1,   1)
       Min divergence: -0.11E-05 at (  13,   3,  22)
       Max VN number:   0.42E-02 at (  15,  21,  21)
       Mesh    8
       Max CFL number:  0.71E-01 at (   4,   2,   1)
       Max divergence:  0.42E-03 at (   3,   2,   1)
       Min divergence: -0.11E-05 at (  19,  24,  22)
       Max VN number:   0.40E-02 at (   9,  23,  19)
 
       Time Step      90   October 14, 2021  14:14:28
       Step Size:    0.733E-02 s, Total Time:       1.72 s
       Pressure Iterations:      4
       Maximum Velocity Error:  0.14E-01 on Mesh   3 at (  41   1  15)
       Maximum Pressure Error:  0.84E+02 on Mesh   2 at (   1  40  20)
       ---------------------------------------------------------------
       Mesh    1
       Max CFL number:  0.84E+00 at (  40,  40,  18)
       Max divergence:  0.41E+01 at (  40,  38,   6)
       Min divergence: -0.23E+01 at (  40,  40,  21)
       Max VN number:   0.13E+00 at (  40,  40,  21)
       Mesh    2
       Max CFL number:  0.90E+00 at (   1,  40,  16)
       Max divergence:  0.41E+01 at (   1,  38,   6)
       Min divergence: -0.11E+01 at (   1,  40,  19)
       Max VN number:   0.15E+00 at (   1,  40,  16)
       Mesh    3
       Max CFL number:  0.78E+00 at (  40,   1,  19)
       Max divergence:  0.41E+01 at (  40,   3,   6)
       Min divergence: -0.14E+01 at (  39,   1,  21)
       Max VN number:   0.13E+00 at (  39,   1,  20)
       Mesh    4
       Max CFL number:  0.79E+00 at (   1,   1,  18)
       Max divergence:  0.41E+01 at (   3,   1,   6)
       Min divergence: -0.11E+01 at (   1,   1,  11)
       Max VN number:   0.96E-01 at (   3,   1,  19)
       Mesh    5
       Max CFL number:  0.19E+00 at (  40,  40,   1)
       Max divergence:  0.38E-01 at (  40,  40,   1)
       Min divergence: -0.10E-05 at (   6,  20,  22)
       Max VN number:   0.13E-01 at (  40,  40,   1)
       Mesh    6
       Max CFL number:  0.13E+00 at (   2,  39,   1)
       Max divergence:  0.78E-02 at (   1,  40,   1)
       Min divergence: -0.11E-05 at (   3,  15,  22)
       Max VN number:   0.10E-01 at (   2,  39,   1)
       Mesh    7
       Max CFL number:  0.38E+00 at (  40,   1,   1)
       Max divergence:  0.14E+00 at (  40,   2,   1)
       Min divergence: -0.24E+00 at (  40,   1,   1)
       Max VN number:   0.74E-01 at (  40,   1,   1)
       Mesh    8
       Max CFL number:  0.18E+00 at (   1,   1,   1)
       Max divergence:  0.38E-01 at (   1,   1,   1)
       Min divergence: -0.11E-05 at (  19,  24,  22)
       Max VN number:   0.13E-01 at (   1,   1,   1)
 
       Time Step     100   October 14, 2021  14:14:31
       Step Size:    0.733E-02 s, Total Time:       1.79 s
       Pressure Iterations:      4
       Maximum Velocity Error:  0.12E-01 on Mesh   4 at (   1   1  24)
       Maximum Pressure Error:  0.86E+02 on Mesh   2 at (   1  40  23)
       ---------------------------------------------------------------
       Mesh    1
       Max CFL number:  0.81E+00 at (  39,  40,  22)
       Max divergence:  0.41E+01 at (  38,  40,   6)
       Min divergence: -0.12E+01 at (  40,  39,  14)
       Max VN number:   0.13E+00 at (  40,  40,  23)
       Mesh    2
       Max CFL number:  0.81E+00 at (   1,  39,  20)
       Max divergence:  0.40E+01 at (   3,  40,   6)
       Min divergence: -0.75E+00 at (   2,  39,  13)
       Max VN number:   0.21E+00 at (   1,  40,  22)
       Mesh    3
       Max CFL number:  0.83E+00 at (  40,   2,  23)
       Max divergence:  0.40E+01 at (  38,   1,   6)
       Min divergence: -0.13E+01 at (  39,   1,  12)
       Max VN number:   0.11E+00 at (  40,   2,  22)
       Mesh    4
       Max CFL number:  0.68E+00 at (   1,   2,  22)
       Max divergence:  0.40E+01 at (   3,   1,   6)
       Min divergence: -0.16E+01 at (   1,   1,  15)
       Max VN number:   0.13E+00 at (   4,   1,  19)
       Mesh    5
       Max CFL number:  0.60E+00 at (  40,  40,   1)
       Max divergence:  0.73E+00 at (  39,  40,   1)
       Min divergence: -0.17E+01 at (  40,  40,   1)
       Max VN number:   0.14E+00 at (  40,  40,   1)
       Mesh    6
       Max CFL number:  0.41E+00 at (   1,  40,   1)
       Max divergence:  0.38E+00 at (   1,  40,   2)
       Min divergence: -0.14E+00 at (   1,  40,   1)
       Max VN number:   0.40E-01 at (   1,  39,   1)
       Mesh    7
       Max CFL number:  0.67E+00 at (  39,   2,   1)
       Max divergence:  0.48E+00 at (  40,   3,   2)
       Min divergence: -0.11E+01 at (  40,   1,   2)
       Max VN number:   0.95E-01 at (  39,   2,   1)
       Mesh    8
       Max CFL number:  0.47E+00 at (   1,   1,   1)
       Max divergence:  0.27E+00 at (   1,   3,   1)
       Min divergence: -0.84E+00 at (   1,   1,   1)
       Max VN number:   0.78E-01 at (   1,   1,   1)
 
       Time Step     200   October 14, 2021  14:14:59
       Step Size:    0.615E-02 s, Total Time:       2.48 s
       Pressure Iterations:      4
       Maximum Velocity Error:  0.15E-01 on Mesh   5 at (  39  41  15)
       Maximum Pressure Error:  0.65E+02 on Mesh   5 at (  39  40   2)
       ---------------------------------------------------------------
       Mesh    1
       Max CFL number:  0.52E+00 at (  39,  40,  23)
       Max divergence:  0.41E+01 at (  40,  38,   6)
       Min divergence: -0.10E+01 at (  39,  39,  12)
       Max VN number:   0.78E-01 at (  39,  40,  23)
       Mesh    2
       Max CFL number:  0.48E+00 at (   1,  40,  22)
       Max divergence:  0.40E+01 at (   2,  38,   6)
       Min divergence: -0.10E+01 at (   1,  40,  20)
       Max VN number:   0.76E-01 at (   1,  40,  20)
       Mesh    3
       Max CFL number:  0.61E+00 at (  40,   1,  23)
       Max divergence:  0.40E+01 at (  40,   3,   6)
       Min divergence: -0.19E+01 at (  40,   1,  22)
       Max VN number:   0.99E-01 at (  40,   1,  22)
       Mesh    4
       Max CFL number:  0.56E+00 at (   1,   1,  22)
       Max divergence:  0.40E+01 at (   3,   2,   6)
       Min divergence: -0.12E+01 at (   1,   1,  15)
       Max VN number:   0.92E-01 at (   1,   2,  22)
       Mesh    5
       Max CFL number:  0.95E+00 at (  36,  38,  22)
       Max divergence:  0.11E+01 at (  38,  40,  13)
       Min divergence: -0.89E+00 at (  39,  40,   1)
       Max VN number:   0.24E+00 at (  37,  37,  22)
       Mesh    6
       Max CFL number:  0.85E+00 at (   1,  38,  23)
       Max divergence:  0.55E+00 at (   1,  39,   8)
       Min divergence: -0.14E+01 at (   1,  40,   8)
       Max VN number:   0.20E+00 at (   4,  37,  22)
       Mesh    7
       Max CFL number:  0.94E+00 at (  38,   5,  22)
       Max divergence:  0.11E+01 at (  37,   4,  22)
       Min divergence: -0.17E+01 at (  40,   1,   1)
       Max VN number:   0.35E+00 at (  36,   4,  22)
       Mesh    8
       Max CFL number:  0.80E+00 at (   4,   4,  23)
       Max divergence:  0.46E+00 at (   2,   1,   8)
       Min divergence: -0.88E+00 at (   1,   1,   7)
       Max VN number:   0.22E+00 at (   4,   4,  22)
 
       Time Step     300   October 14, 2021  14:15:23
       Step Size:    0.596E-02 s, Total Time:       3.05 s
       Pressure Iterations:      3
       Maximum Velocity Error:  0.23E-01 on Mesh   5 at (  41  39  12)
       Maximum Pressure Error:  0.93E+02 on Mesh   5 at (  39  39  14)
       ---------------------------------------------------------------
       Mesh    1
       Max CFL number:  0.54E+00 at (  40,  40,  22)
       Max divergence:  0.41E+01 at (  38,  39,   6)
       Min divergence: -0.14E+01 at (  40,  40,  18)
       Max VN number:   0.93E-01 at (  40,  40,  21)
       Mesh    2
       Max CFL number:  0.57E+00 at (   1,  40,  22)
       Max divergence:  0.41E+01 at (   3,  39,   6)
       Min divergence: -0.83E+00 at (   1,  40,  23)
       Max VN number:   0.75E-01 at (   1,  40,  22)
       Mesh    3
       Max CFL number:  0.52E+00 at (  40,   1,  21)
       Max divergence:  0.41E+01 at (  38,   1,   6)
       Min divergence: -0.14E+01 at (  40,   1,  20)
       Max VN number:   0.87E-01 at (  40,   1,  20)
       Mesh    4
       Max CFL number:  0.58E+00 at (   1,   1,  21)
       Max divergence:  0.40E+01 at (   3,   2,   6)
       Min divergence: -0.14E+01 at (   1,   1,  18)
       Max VN number:   0.87E-01 at (   1,   1,  21)
       Mesh    5
       Max CFL number:  0.85E+00 at (  40,  39,  10)
       Max divergence:  0.62E+00 at (  39,  40,   2)
       Min divergence: -0.98E+00 at (  40,  39,  15)
       Max VN number:   0.31E+00 at (  36,  39,  22)
       Mesh    6
       Max CFL number:  0.74E+00 at (   1,  39,  14)
       Max divergence:  0.15E+01 at (   2,  40,   9)
       Min divergence: -0.18E+01 at (   1,  40,   9)
       Max VN number:   0.24E+00 at (   2,  39,  22)
       Mesh    7
       Max CFL number:  0.87E+00 at (  39,   2,  22)
       Max divergence:  0.62E+00 at (  39,   1,   3)
       Min divergence: -0.11E+01 at (  40,   1,   1)
       Max VN number:   0.27E+00 at (  37,   4,  22)
       Mesh    8
       Max CFL number:  0.74E+00 at (   1,   5,  22)
       Max divergence:  0.84E+00 at (   2,   1,  12)
       Min divergence: -0.15E+01 at (   1,   1,  10)
       Max VN number:   0.29E+00 at (  11,   2,  21)
 
       Time Step     400   October 14, 2021  14:15:48
       Step Size:    0.638E-02 s, Total Time:       3.65 s
       Pressure Iterations:      4
       Maximum Velocity Error:  0.14E-01 on Mesh   5 at (  39  41  18)
       Maximum Pressure Error:  0.76E+02 on Mesh   5 at (  40  39   7)
       ---------------------------------------------------------------
       Mesh    1
       Max CFL number:  0.63E+00 at (  40,  40,  21)
       Max divergence:  0.42E+01 at (  40,  38,   6)
       Min divergence: -0.12E+01 at (  40,  40,  14)
       Max VN number:   0.11E+00 at (  40,  39,  14)
       Mesh    2
       Max CFL number:  0.65E+00 at (   1,  40,  22)
       Max divergence:  0.42E+01 at (   1,  38,   6)
       Min divergence: -0.12E+01 at (   1,  39,  23)
       Max VN number:   0.11E+00 at (   1,  39,  22)
       Mesh    3
       Max CFL number:  0.60E+00 at (  40,   1,  21)
       Max divergence:  0.41E+01 at (  40,   3,   6)
       Min divergence: -0.15E+01 at (  40,   1,  20)
       Max VN number:   0.99E-01 at (  40,   2,  17)
       Mesh    4
       Max CFL number:  0.56E+00 at (   1,   1,  23)
       Max divergence:  0.41E+01 at (   1,   3,   6)
       Min divergence: -0.79E+00 at (   1,   2,  12)
       Max VN number:   0.73E-01 at (   1,   2,  15)
       Mesh    5
       Max CFL number:  0.84E+00 at (  37,  39,  23)
       Max divergence:  0.70E+00 at (  40,  39,  15)
       Min divergence: -0.94E+00 at (  40,  40,  14)
       Max VN number:   0.26E+00 at (  34,  36,  22)
       Mesh    6
       Max CFL number:  0.79E+00 at (   4,  39,  23)
       Max divergence:  0.61E+00 at (   3,  40,  11)
       Min divergence: -0.12E+01 at (   1,  40,   2)
       Max VN number:   0.35E+00 at (   1,  36,  22)
       Mesh    7
       Max CFL number:  0.95E+00 at (  40,   2,  23)
       Max divergence:  0.83E+00 at (  39,   1,   5)
       Min divergence: -0.12E+01 at (  40,   1,   3)
       Max VN number:   0.26E+00 at (  37,   4,  22)
       Mesh    8
       Max CFL number:  0.90E+00 at (   1,   2,  23)
       Max divergence:  0.73E+00 at (   1,   2,  14)
       Min divergence: -0.80E+00 at (   2,   2,   8)
       Max VN number:   0.25E+00 at (   5,   4,  22)
 
       Time Step     500   October 14, 2021  14:16:14
       Step Size:    0.640E-02 s, Total Time:       4.25 s
       Pressure Iterations:      3
       Maximum Velocity Error:  0.18E-01 on Mesh   6 at (   2  41  16)
       Maximum Pressure Error:  0.60E+02 on Mesh   6 at (   3  40   3)
       ---------------------------------------------------------------
       Mesh    1
       Max CFL number:  0.53E+00 at (  40,  40,  22)
       Max divergence:  0.41E+01 at (  39,  38,   6)
       Min divergence: -0.97E+00 at (  39,  39,  11)
       Max VN number:   0.79E-01 at (  39,  39,  22)
       Mesh    2
       Max CFL number:  0.63E+00 at (   2,  40,  23)
       Max divergence:  0.41E+01 at (   3,  40,   6)
       Min divergence: -0.87E+00 at (   2,  40,  23)
       Max VN number:   0.10E+00 at (   2,  40,  16)
       Mesh    3
       Max CFL number:  0.57E+00 at (  40,   1,  15)
       Max divergence:  0.43E+01 at (  38,   1,   6)
       Min divergence: -0.13E+01 at (  40,   1,  21)
       Max VN number:   0.11E+00 at (  39,   1,  13)
       Mesh    4
       Max CFL number:  0.68E+00 at (   1,   1,  23)
       Max divergence:  0.43E+01 at (   3,   1,   6)
       Min divergence: -0.16E+01 at (   2,   1,  12)
       Max VN number:   0.13E+00 at (   1,   1,  23)
       Mesh    5
       Max CFL number:  0.81E+00 at (  40,  39,  23)
       Max divergence:  0.12E+01 at (  39,  40,  10)
       Min divergence: -0.11E+01 at (  40,  40,   7)
       Max VN number:   0.26E+00 at (  39,  36,  22)
       Mesh    6
       Max CFL number:  0.78E+00 at (   4,  37,  22)
       Max divergence:  0.70E+00 at (   2,  39,   1)
       Min divergence: -0.12E+01 at (   1,  40,  12)
       Max VN number:   0.24E+00 at (   4,  37,  22)
       Mesh    7
       Max CFL number:  0.82E+00 at (  40,   3,  23)
       Max divergence:  0.91E+00 at (  38,   2,  22)
       Min divergence: -0.11E+01 at (  40,   1,  11)
       Max VN number:   0.28E+00 at (  37,   4,  22)
       Mesh    8
       Max CFL number:  0.92E+00 at (   1,   3,  23)
       Max divergence:  0.10E+01 at (   2,   1,  16)
       Min divergence: -0.11E+01 at (   1,   1,   1)
       Max VN number:   0.26E+00 at (   4,   4,  22)
 
       Time Step     600   October 14, 2021  14:16:41
       Step Size:    0.693E-02 s, Total Time:       4.90 s
       Pressure Iterations:      4
       Maximum Velocity Error:  0.14E-01 on Mesh   1 at (  40  41  22)
       Maximum Pressure Error:  0.18E+03 on Mesh   4 at (   1   1  22)
       ---------------------------------------------------------------
       Mesh    1
       Max CFL number:  0.65E+00 at (  40,  40,  23)
       Max divergence:  0.40E+01 at (  39,  38,   6)
       Min divergence: -0.11E+01 at (  40,  39,  11)
       Max VN number:   0.12E+00 at (  38,  40,  22)
       Mesh    2
       Max CFL number:  0.76E+00 at (   1,  40,  23)
       Max divergence:  0.39E+01 at (   3,  40,   6)
       Min divergence: -0.80E+00 at (   2,  40,  12)
       Max VN number:   0.10E+00 at (   1,  39,  23)
       Mesh    3
       Max CFL number:  0.73E+00 at (  40,   1,  20)
       Max divergence:  0.41E+01 at (  38,   2,   6)
       Min divergence: -0.13E+01 at (  40,   1,  15)
       Max VN number:   0.12E+00 at (  39,   1,  22)
       Mesh    4
       Max CFL number:  0.97E+00 at (   1,   1,  20)
       Max divergence:  0.40E+01 at (   1,   3,   6)
       Min divergence: -0.19E+01 at (   1,   1,  14)
       Max VN number:   0.17E+00 at (   1,   1,  20)
       Mesh    5
       Max CFL number:  0.88E+00 at (  40,  39,   8)
       Max divergence:  0.11E+01 at (  39,  40,   4)
       Min divergence: -0.16E+01 at (  40,  40,   4)
       Max VN number:   0.24E+00 at (  37,  37,  22)
       Mesh    6
       Max CFL number:  0.79E+00 at (   1,  40,  15)
       Max divergence:  0.60E+00 at (   1,  37,  11)
       Min divergence: -0.15E+01 at (   1,  38,  10)
       Max VN number:   0.40E+00 at (   2,  36,  22)
       Mesh    7
       Max CFL number:  0.79E+00 at (  39,   1,  16)
       Max divergence:  0.55E+00 at (  39,   1,   2)
       Min divergence: -0.94E+00 at (  40,   1,   1)
       Max VN number:   0.28E+00 at (  30,   5,  21)
       Mesh    8
       Max CFL number:  0.81E+00 at (   4,   4,  18)
       Max divergence:  0.52E+00 at (   2,   1,   1)
       Min divergence: -0.44E+00 at (   1,   2,   1)
       Max VN number:   0.22E+00 at (  11,   9,  21)
 
       Time Step     700   October 14, 2021  14:17:07
       Step Size:    0.600E-02 s, Total Time:       5.56 s
       Pressure Iterations:      3
       Maximum Velocity Error:  0.21E-01 on Mesh   5 at (  41  39   8)
       Maximum Pressure Error:  0.11E+03 on Mesh   6 at (   2  39  14)
       ---------------------------------------------------------------
       Mesh    1
       Max CFL number:  0.66E+00 at (  40,  40,  21)
       Max divergence:  0.43E+01 at (  40,  38,   6)
       Min divergence: -0.12E+01 at (  40,  40,  15)
       Max VN number:   0.13E+00 at (  40,  40,  21)
       Mesh    2
       Max CFL number:  0.58E+00 at (   2,  40,  23)
       Max divergence:  0.42E+01 at (   1,  38,   6)
       Min divergence: -0.12E+01 at (   1,  40,  12)
       Max VN number:   0.10E+00 at (   2,  39,  20)
       Mesh    3
       Max CFL number:  0.60E+00 at (  40,   1,  21)
       Max divergence:  0.41E+01 at (  38,   1,   6)
       Min divergence: -0.14E+01 at (  40,   1,  20)
       Max VN number:   0.11E+00 at (  40,   1,  20)
       Mesh    4
       Max CFL number:  0.61E+00 at (   1,   1,  22)
       Max divergence:  0.43E+01 at (   1,   2,   6)
       Min divergence: -0.12E+01 at (   2,   1,  18)
       Max VN number:   0.10E+00 at (   2,   1,  21)
       Mesh    5
       Max CFL number:  0.72E+00 at (  40,  40,   6)
       Max divergence:  0.78E+00 at (  40,  39,   9)
       Min divergence: -0.10E+01 at (  40,  39,   3)
       Max VN number:   0.23E+00 at (  36,  40,  22)
       Mesh    6
       Max CFL number:  0.69E+00 at (   1,  40,   3)
       Max divergence:  0.94E+00 at (   2,  39,   1)
       Min divergence: -0.17E+01 at (   2,  40,   2)
       Max VN number:   0.23E+00 at (   5,  37,  22)
       Mesh    7
[...]
       Max VN number:   0.23E+00 at (  10,  38,   1)
       No. of Lagrangian Particles:         37884
       Mesh    5
       Max CFL number:  0.67E+00 at (  40,  40,  12)
       Max divergence:  0.17E+00 at (  20,  22,  13)
       Min divergence: -0.14E+01 at (  20,  19,  13)
       Max VN number:   0.18E+00 at (  39,  40,  12)
       No. of Lagrangian Particles:         22743
       Mesh    6
       Max CFL number:  0.85E+00 at (  20,  20,  12)
       Max divergence:  0.18E+00 at (   4,  36,   9)
       Min divergence: -0.13E+01 at (   2,  40,  13)
       Max VN number:   0.21E+00 at (  19,  20,  12)
       No. of Lagrangian Particles:         23979
       Mesh    7
       Max CFL number:  0.63E+00 at (  20,  22,  12)
       Max divergence:  0.29E+00 at (  20,  22,  10)
       Min divergence: -0.20E+01 at (  40,   1,  12)
       Max VN number:   0.18E+00 at (  20,  22,  12)
       No. of Lagrangian Particles:         25266
       Mesh    8
       Max CFL number:  0.86E+00 at (  22,  20,  13)
       Max divergence:  0.18E+00 at (  18,  19,  12)
       Min divergence: -0.16E+01 at (  21,  19,  13)
       Max VN number:   0.23E+00 at (  22,  20,  12)
       No. of Lagrangian Particles:         25667
 
       Time Step   95400   October 14, 2021  23:50:24
       Step Size:    0.392E-02 s, Total Time:     397.77 s
       Pressure Iterations:      5
       Maximum Velocity Error:  0.23E-01 on Mesh   6 at (   2  41  12)
       Maximum Pressure Error:  0.44E+03 on Mesh   3 at (  36   2   7)
       ---------------------------------------------------------------
       Mesh    1
       Max CFL number:  0.39E+00 at (  15,  18,  20)
       Max divergence:  0.59E+01 at (  38,  39,   6)
       Min divergence: -0.58E+01 at (  39,  40,   7)
       Max VN number:   0.17E+00 at (  29,  40,   1)
       No. of Lagrangian Particles:         37424
       Mesh    2
       Max CFL number:  0.35E+00 at (   8,  40,  20)
       Max divergence:  0.49E+01 at (   3,  38,   6)
       Min divergence: -0.22E+01 at (   2,  37,   6)
       Max VN number:   0.18E+00 at (  11,  40,   1)
       No. of Lagrangian Particles:         36678
       Mesh    3
       Max CFL number:  0.37E+00 at (  12,  19,  16)
       Max divergence:  0.70E+01 at (  38,   4,   6)
       Min divergence: -0.51E+01 at (  36,   2,   7)
       Max VN number:   0.21E+00 at (  37,  13,   1)
       No. of Lagrangian Particles:         38618
       Mesh    4
       Max CFL number:  0.36E+00 at (  28,  19,  22)
       Max divergence:  0.47E+01 at (   2,   2,   7)
       Min divergence: -0.46E+01 at (   2,   5,   7)
       Max VN number:   0.22E+00 at (  21,  39,   1)
       No. of Lagrangian Particles:         37852
       Mesh    5
       Max CFL number:  0.82E+00 at (  22,  21,  13)
       Max divergence:  0.30E+00 at (  22,  19,  12)
       Min divergence: -0.17E+01 at (  39,  39,  13)
       Max VN number:   0.23E+00 at (  22,  21,  12)
       No. of Lagrangian Particles:         22732
       Mesh    6
       Max CFL number:  0.75E+00 at (  19,  21,  12)
       Max divergence:  0.23E+00 at (  20,  23,  12)
       Min divergence: -0.20E+01 at (   2,  39,  13)
       Max VN number:   0.17E+00 at (  21,  22,  12)
       No. of Lagrangian Particles:         23965
       Mesh    7
       Max CFL number:  0.68E+00 at (  18,  21,  10)
       Max divergence:  0.36E+00 at (  20,  23,  12)
       Min divergence: -0.18E+01 at (  20,  22,  12)
       Max VN number:   0.15E+00 at (  40,   1,   9)
       No. of Lagrangian Particles:         25327
       Mesh    8
       Max CFL number:  0.73E+00 at (  19,  20,  13)
       Max divergence:  0.24E+00 at (  19,  23,  12)
       Min divergence: -0.16E+01 at (  22,  21,  13)
       Max VN number:   0.17E+00 at (  21,  19,  13)
       No. of Lagrangian Particles:         25458
 
       Time Step   95500   October 14, 2021  23:51:01
       Step Size:    0.400E-02 s, Total Time:     398.14 s
       Pressure Iterations:      5
       Maximum Velocity Error:  0.30E-01 on Mesh   1 at (  41  37   6)
       Maximum Pressure Error:  0.20E+04 on Mesh   2 at (   1  37   6)
       ---------------------------------------------------------------
       Mesh    1
       Max CFL number:  0.40E+00 at (  12,  20,  22)
       Max divergence:  0.66E+01 at (  40,  40,   6)
       Min divergence: -0.29E+01 at (  37,  39,   6)
       Max VN number:   0.27E+00 at (   3,  39,   1)
       No. of Lagrangian Particles:         37059
       Mesh    2
       Max CFL number:  0.38E+00 at (  22,  18,  21)
       Max divergence:  0.68E+01 at (   2,  38,   6)
       Min divergence: -0.15E+02 at (   1,  37,   6)
       Max VN number:   0.19E+00 at (  20,  39,   1)
       No. of Lagrangian Particles:         36878
       Mesh    3
       Max CFL number:  0.39E+00 at (  14,  22,  18)
       Max divergence:  0.47E+01 at (  40,   3,   6)
       Min divergence: -0.35E+01 at (  37,   6,  11)
       Max VN number:   0.15E+00 at (  23,  19,   1)
       No. of Lagrangian Particles:         38911
       Mesh    4
       Max CFL number:  0.38E+00 at (  27,  19,  23)
       Max divergence:  0.50E+01 at (   2,   3,   6)
       Min divergence: -0.18E+01 at (   1,   1,   9)
       Max VN number:   0.15E+00 at (   5,   2,   5)
       No. of Lagrangian Particles:         38135
       Mesh    5
       Max CFL number:  0.68E+00 at (  20,  21,  13)
       Max divergence:  0.13E+00 at (  35,  40,   2)
       Min divergence: -0.15E+01 at (  22,  20,  12)
       Max VN number:   0.15E+00 at (  19,  22,  13)
       No. of Lagrangian Particles:         22915
       Mesh    6
       Max CFL number:  0.82E+00 at (  19,  20,  11)
       Max divergence:  0.19E+00 at (  18,  18,   8)
       Min divergence: -0.17E+01 at (  19,  19,  12)
       Max VN number:   0.18E+00 at (  18,  20,  11)
       No. of Lagrangian Particles:         23762
       Mesh    7
       Max CFL number:  0.86E+00 at (  19,  21,  12)
       Max divergence:  0.32E+00 at (  22,  21,  12)
       Min divergence: -0.28E+01 at (  20,  19,  13)
       Max VN number:   0.21E+00 at (  20,  22,  12)
       No. of Lagrangian Particles:         25257
       Mesh    8
       Max CFL number:  0.72E+00 at (  19,  21,  11)
       Max divergence:  0.20E+00 at (  21,  22,  13)
       Min divergence: -0.29E+01 at (  22,  21,  12)
       Max VN number:   0.15E+00 at (  19,  21,  12)
       No. of Lagrangian Particles:         25451
 
       Time Step   95600   October 14, 2021  23:51:40
       Step Size:    0.389E-02 s, Total Time:     398.51 s
       Pressure Iterations:      5
       Maximum Velocity Error:  0.14E-01 on Mesh   7 at (  41   2  13)
       Maximum Pressure Error:  0.10E+04 on Mesh   2 at (   3  39   6)
       ---------------------------------------------------------------
       Mesh    1
       Max CFL number:  0.47E+00 at (  20,  13,  23)
       Max divergence:  0.77E+01 at (  37,  38,   6)
       Min divergence: -0.94E+01 at (  36,  36,   9)
       Max VN number:   0.21E+00 at (  33,  11,   1)
       No. of Lagrangian Particles:         36623
       Mesh    2
       Max CFL number:  0.48E+00 at (  14,  21,  23)
       Max divergence:  0.49E+01 at (   1,  40,   6)
       Min divergence: -0.18E+01 at (   2,  40,   9)
       Max VN number:   0.19E+00 at (  20,  40,   1)
       No. of Lagrangian Particles:         36868
       Mesh    3
       Max CFL number:  0.33E+00 at (  40,   8,  23)
       Max divergence:  0.52E+01 at (  38,   1,   6)
       Min divergence: -0.43E+01 at (  37,   1,   6)
       Max VN number:   0.14E+00 at (   1,   3,   7)
       No. of Lagrangian Particles:         38818
       Mesh    4
       Max CFL number:  0.39E+00 at (  23,  21,  19)
       Max divergence:  0.48E+01 at (   1,   1,   6)
       Min divergence: -0.76E+01 at (   6,   2,   6)
       Max VN number:   0.17E+00 at (   1,  39,   1)
       No. of Lagrangian Particles:         38175
       Mesh    5
       Max CFL number:  0.98E+00 at (  20,  20,  12)
       Max divergence:  0.13E+00 at (  39,  40,  13)
       Min divergence: -0.18E+01 at (  19,  19,  12)
       Max VN number:   0.18E+00 at (  20,  20,  11)
       No. of Lagrangian Particles:         22820
       Mesh    6
       Max CFL number:  0.62E+00 at (  19,  21,  12)
       Max divergence:  0.18E+00 at (  22,  20,  12)
       Min divergence: -0.17E+01 at (  19,  20,  13)
       Max VN number:   0.17E+00 at (  19,  21,  12)
       No. of Lagrangian Particles:         23440
       Mesh    7
       Max CFL number:  0.95E+00 at (  20,  20,  12)
       Max divergence:  0.36E+00 at (  22,  22,  10)
       Min divergence: -0.17E+01 at (  22,  20,  12)
       Max VN number:   0.18E+00 at (  20,  21,  11)
       No. of Lagrangian Particles:         25419
       Mesh    8
       Max CFL number:  0.95E+00 at (  21,  19,  12)
       Max divergence:  0.20E+00 at (  23,  20,  10)
       Min divergence: -0.16E+01 at (  19,  20,  12)
       Max VN number:   0.20E+00 at (  21,  19,  12)
       No. of Lagrangian Particles:         25539
 
       Time Step   95700   October 14, 2021  23:52:18
       Step Size:    0.395E-02 s, Total Time:     398.90 s
       Pressure Iterations:      6
       Maximum Velocity Error:  0.16E-01 on Mesh   5 at (  39  41  12)
       Maximum Pressure Error:  0.11E+04 on Mesh   4 at (   1   2   6)
       ---------------------------------------------------------------
       Mesh    1
       Max CFL number:  0.35E+00 at (  18,  17,  21)
       Max divergence:  0.60E+01 at (  38,  40,   6)
       Min divergence: -0.12E+02 at (  37,  40,   9)
       Max VN number:   0.19E+00 at (  27,  38,   1)
       No. of Lagrangian Particles:         36313
       Mesh    2
       Max CFL number:  0.39E+00 at (  16,  22,  23)
       Max divergence:  0.57E+01 at (   4,  37,   6)
       Min divergence: -0.81E+01 at (   5,  38,   6)
       Max VN number:   0.24E+00 at (  29,  39,   1)
       No. of Lagrangian Particles:         36943
       Mesh    3
       Max CFL number:  0.38E+00 at (   9,  21,   1)
       Max divergence:  0.64E+01 at (  38,   3,   6)
       Min divergence: -0.44E+01 at (  38,   3,   8)
       Max VN number:   0.17E+00 at (   4,   1,   1)
       No. of Lagrangian Particles:         38660
       Mesh    4
       Max CFL number:  0.49E+00 at (  29,  18,  18)
       Max divergence:  0.12E+02 at (   1,   2,   6)
       Min divergence: -0.53E+01 at (   2,   4,   6)
       Max VN number:   0.15E+00 at (  29,  40,   2)
       No. of Lagrangian Particles:         38146
       Mesh    5
       Max CFL number:  0.79E+00 at (  19,  20,  12)
       Max divergence:  0.20E+00 at (  33,  35,   1)
       Min divergence: -0.22E+01 at (  22,  20,  12)
       Max VN number:   0.20E+00 at (  19,  20,  12)
       No. of Lagrangian Particles:         22735
       Mesh    6
       Max CFL number:  0.85E+00 at (  22,  20,  12)
       Max divergence:  0.21E+00 at (   1,  40,   7)
       Min divergence: -0.21E+01 at (   2,  39,  12)
       Max VN number:   0.24E+00 at (  22,  20,  12)
       No. of Lagrangian Particles:         23361
       Mesh    7
       Max CFL number:  0.10E+01 at (  21,  21,  12)
       Max divergence:  0.24E+00 at (  39,   2,  12)
       Min divergence: -0.20E+01 at (  39,   1,  12)
       Max VN number:   0.27E+00 at (  21,  22,  12)
       No. of Lagrangian Particles:         25593
       Mesh    8
       Max CFL number:  0.67E+00 at (  22,  20,  11)
       Max divergence:  0.38E+00 at (  20,  22,  11)
       Min divergence: -0.20E+01 at (  22,  20,  13)
       Max VN number:   0.15E+00 at (   4,   1,   8)
       No. of Lagrangian Particles:         25426
 
       Time Step   95800   October 14, 2021  23:52:57
       Step Size:    0.378E-02 s, Total Time:     399.29 s
       Pressure Iterations:      5
       Maximum Velocity Error:  0.20E-01 on Mesh   6 at (   1  41  12)
       Maximum Pressure Error:  0.44E+03 on Mesh   3 at (  39   4   6)
       ---------------------------------------------------------------
       Mesh    1
       Max CFL number:  0.36E+00 at (  25,  22,  23)
       Max divergence:  0.53E+01 at (  40,  36,   6)
       Min divergence: -0.22E+01 at (  37,  37,   7)
       Max VN number:   0.24E+00 at (   2,  36,   1)
       No. of Lagrangian Particles:         36307
       Mesh    2
       Max CFL number:  0.39E+00 at (  20,  13,  19)
       Max divergence:  0.47E+01 at (   3,  38,   6)
       Min divergence: -0.54E+01 at (   4,  40,   6)
       Max VN number:   0.18E+00 at (  39,   6,   1)
       No. of Lagrangian Particles:         37023
       Mesh    3
       Max CFL number:  0.38E+00 at (  21,  30,  20)
       Max divergence:  0.71E+01 at (  39,   1,   6)
       Min divergence: -0.52E+01 at (  39,   4,   6)
       Max VN number:   0.19E+00 at (  36,  16,   1)
       No. of Lagrangian Particles:         38851
       Mesh    4
       Max CFL number:  0.37E+00 at (  33,  14,   7)
       Max divergence:  0.54E+01 at (   2,   1,   6)
       Min divergence: -0.16E+01 at (   2,   5,   5)
       Max VN number:   0.14E+00 at (   1,  39,   1)
       No. of Lagrangian Particles:         38134
       Mesh    5
       Max CFL number:  0.57E+00 at (  21,  17,   9)
       Max divergence:  0.69E+00 at (  36,  38,   5)
       Min divergence: -0.10E+01 at (  22,  19,  12)
       Max VN number:   0.13E+00 at (  22,  20,  10)
       No. of Lagrangian Particles:         22789
       Mesh    6
       Max CFL number:  0.65E+00 at (  20,  22,  13)
       Max divergence:  0.45E+00 at (  22,  20,  12)
       Min divergence: -0.16E+01 at (  20,  22,  13)
       Max VN number:   0.16E+00 at (  21,  19,  12)
       No. of Lagrangian Particles:         23201
       Mesh    7
       Max CFL number:  0.93E+00 at (  21,  21,  13)
       Max divergence:  0.22E+00 at (  26,  17,   2)
       Min divergence: -0.18E+01 at (  40,   1,  12)
       Max VN number:   0.20E+00 at (  22,  21,  13)
       No. of Lagrangian Particles:         25666
       Mesh    8
       Max CFL number:  0.69E+00 at (   1,   1,  12)
       Max divergence:  0.35E+00 at (  25,  19,   9)
       Min divergence: -0.17E+01 at (  22,  20,  12)
       Max VN number:   0.18E+00 at (   1,   2,  11)
       No. of Lagrangian Particles:         25327
 
       Time Step   95900   October 14, 2021  23:53:34
       Step Size:    0.350E-02 s, Total Time:     399.67 s
       Pressure Iterations:      5
       Maximum Velocity Error:  0.25E-01 on Mesh   7 at (  41   2  13)
       Maximum Pressure Error:  0.44E+03 on Mesh   1 at (  37  38   6)
       ---------------------------------------------------------------
       Mesh    1
       Max CFL number:  0.33E+00 at (  20,  12,  20)
       Max divergence:  0.86E+01 at (  37,  38,   6)
       Min divergence: -0.70E+01 at (  36,  40,   6)
       Max VN number:   0.20E+00 at (  13,  37,   1)
       No. of Lagrangian Particles:         36102
       Mesh    2
       Max CFL number:  0.39E+00 at (  13,  21,  21)
       Max divergence:  0.41E+01 at (   4,  40,   6)
       Min divergence: -0.38E+01 at (   1,  40,   6)
       Max VN number:   0.17E+00 at (  39,   9,   1)
       No. of Lagrangian Particles:         37075
       Mesh    3
       Max CFL number:  0.35E+00 at (  12,  21,  20)
       Max divergence:  0.45E+01 at (  36,   1,   6)
       Min divergence: -0.35E+01 at (  35,   1,   6)
       Max VN number:   0.16E+00 at (  35,  14,   1)
       No. of Lagrangian Particles:         39262
       Mesh    4
       Max CFL number:  0.42E+00 at (  28,  22,  21)
       Max divergence:  0.37E+01 at (   2,   1,   6)
       Min divergence: -0.12E+01 at (   5,   2,   7)
       Max VN number:   0.14E+00 at (  21,  39,   1)
       No. of Lagrangian Particles:         37952
       Mesh    5
       Max CFL number:  0.85E+00 at (  20,  22,  12)
       Max divergence:  0.18E+00 at (  37,  33,   3)
       Min divergence: -0.19E+01 at (  22,  20,  12)
       Max VN number:   0.17E+00 at (  39,  40,  12)
       No. of Lagrangian Particles:         22717
       Mesh    6
       Max CFL number:  0.61E+00 at (   1,  39,  13)
       Max divergence:  0.21E+00 at (  21,  22,  11)
       Min divergence: -0.14E+01 at (  19,  23,  12)
       Max VN number:   0.15E+00 at (   1,  39,  13)
       No. of Lagrangian Particles:         23157
       Mesh    7
       Max CFL number:  0.54E+00 at (  21,  22,  13)
       Max divergence:  0.34E+00 at (  20,  22,   9)
       Min divergence: -0.22E+01 at (  19,  20,  12)
       Max VN number:   0.13E+00 at (  21,  22,  12)
       No. of Lagrangian Particles:         25816
       Mesh    8
       Max CFL number:  0.69E+00 at (   2,   1,  12)
       Max divergence:  0.18E+00 at (  20,  21,   7)
       Min divergence: -0.14E+01 at (  19,  21,  12)
       Max VN number:   0.18E+00 at (   2,   1,  12)
       No. of Lagrangian Particles:         25134
 
       Time Step   95986   October 14, 2021  23:54:07
       Step Size:    0.200E-02 s, Total Time:     400.00 s
       Pressure Iterations:      5
       Maximum Velocity Error:  0.10E-01 on Mesh   5 at (  41  40  13)
       Maximum Pressure Error:  0.66E+03 on Mesh   3 at (  37   4   6)
       ---------------------------------------------------------------
       Mesh    1
       Max CFL number:  0.18E+00 at (  19,  15,  18)
       Max divergence:  0.54E+01 at (  40,  39,   6)
       Min divergence: -0.24E+01 at (  36,  39,   9)
       Max VN number:   0.11E+00 at (  37,  36,   1)
       No. of Lagrangian Particles:         35906
       Mesh    2
       Max CFL number:  0.19E+00 at (  15,  21,  23)
       Max divergence:  0.45E+01 at (   3,  40,   6)
       Min divergence: -0.25E+01 at (   4,  36,   6)
       Max VN number:   0.94E-01 at (  14,  35,   1)
       No. of Lagrangian Particles:         36904
       Mesh    3
       Max CFL number:  0.19E+00 at (  40,   4,   6)
       Max divergence:  0.39E+01 at (  37,   1,   6)
       Min divergence: -0.27E+01 at (  40,   5,   5)
       Max VN number:   0.11E+00 at (  34,  17,   1)
       No. of Lagrangian Particles:         39435
       Mesh    4
       Max CFL number:  0.18E+00 at (   2,   4,   6)
       Max divergence:  0.55E+01 at (   4,   3,   6)
       Min divergence: -0.14E+01 at (   7,   1,   5)
       Max VN number:   0.80E-01 at (  28,  39,   1)
       No. of Lagrangian Particles:         37799
       Mesh    5
       Max CFL number:  0.45E+00 at (  20,  22,  12)
       Max divergence:  0.33E+00 at (  35,  31,   6)
       Min divergence: -0.23E+01 at (  20,  22,  12)
       Max VN number:   0.14E+00 at (  20,  22,  12)
       No. of Lagrangian Particles:         22747
       Mesh    6
       Max CFL number:  0.38E+00 at (  19,  21,  11)
       Max divergence:  0.21E+00 at (   3,  27,   1)
       Min divergence: -0.19E+01 at (   2,  40,  13)
       Max VN number:   0.98E-01 at (  22,  20,  12)
       No. of Lagrangian Particles:         23212
       Mesh    7
       Max CFL number:  0.46E+00 at (  21,  22,  12)
       Max divergence:  0.42E+00 at (  23,  21,  12)
       Min divergence: -0.36E+01 at (  22,  20,  13)
       Max VN number:   0.13E+00 at (  21,  22,  12)
       No. of Lagrangian Particles:         26081
       Mesh    8
       Max CFL number:  0.37E+00 at (  20,  22,  12)
       Max divergence:  0.25E+00 at (  18,  20,  11)
       Min divergence: -0.31E+01 at (   2,   1,  13)
       Max VN number:   0.10E+00 at (  20,  22,  12)
       No. of Lagrangian Particles:         24807
 


 DEVICE Activation Times

  29  nozzle                                                          95.0 s
  30  nozzle                                                          95.0 s
  31  nozzle                                                          95.0 s
  32  nozzle                                                          95.0 s
  33  nozzle                                                          95.0 s


 Time Stepping Wall Clock Time (s):    34805.935
 Total Elapsed Wall Clock Time (s):    34815.384

STOP: FDS completed successfully (CHID: Case2_Methanol_33kw)
