
 Fire Dynamics Simulator

 Current Date     : July 27, 2021  16:18:46
 Revision         : FDS6.7.6-0-g5064c500c-release
 Revision Date    : Thu May 27 12:19:10 2021 -0400
 Compiler         : Intel ifort 2021.1
 Compilation Date : Tue 06/01/2021  11:25 AM

 MPI Enabled;    Number of MPI Processes:       1
 OpenMP Enabled; Number of OpenMP Threads:      4

 MPI version: 3.1
 MPI library version: Intel(R) MPI Library 2021.1 for Windows* OS


 Job TITLE        : Case2_Methanol_40
 Job ID string    : Case2_Methanol_40


 Grid Dimensions, Mesh     1

   Cells in the X Direction            40
   Cells in the Y Direction            40
   Cells in the Z Direction            23
   Number of Grid Cells             36800


 Physical Dimensions, Mesh     1

   Length (m)                       2.000
   Width  (m)                       2.000
   Height (m)                       1.150
   Initial Time Step (s)            0.052

 Grid Dimensions, Mesh     2

   Cells in the X Direction            40
   Cells in the Y Direction            40
   Cells in the Z Direction            23
   Number of Grid Cells             36800


 Physical Dimensions, Mesh     2

   Length (m)                       2.000
   Width  (m)                       2.000
   Height (m)                       1.150
   Initial Time Step (s)            0.052

 Grid Dimensions, Mesh     3

   Cells in the X Direction            40
   Cells in the Y Direction            40
   Cells in the Z Direction            23
   Number of Grid Cells             36800


 Physical Dimensions, Mesh     3

   Length (m)                       2.000
   Width  (m)                       2.000
   Height (m)                       1.150
   Initial Time Step (s)            0.052

 Grid Dimensions, Mesh     4

   Cells in the X Direction            40
   Cells in the Y Direction            40
   Cells in the Z Direction            23
   Number of Grid Cells             36800


 Physical Dimensions, Mesh     4

   Length (m)                       2.000
   Width  (m)                       2.000
   Height (m)                       1.150
   Initial Time Step (s)            0.052

 Grid Dimensions, Mesh     5

   Cells in the X Direction            40
   Cells in the Y Direction            40
   Cells in the Z Direction            23
   Number of Grid Cells             36800


 Physical Dimensions, Mesh     5

   Length (m)                       2.000
   Width  (m)                       2.000
   Height (m)                       1.150
   Initial Time Step (s)            0.052

 Grid Dimensions, Mesh     6

   Cells in the X Direction            40
   Cells in the Y Direction            40
   Cells in the Z Direction            23
   Number of Grid Cells             36800


 Physical Dimensions, Mesh     6

   Length (m)                       2.000
   Width  (m)                       2.000
   Height (m)                       1.150
   Initial Time Step (s)            0.052

 Grid Dimensions, Mesh     7

   Cells in the X Direction            40
   Cells in the Y Direction            40
   Cells in the Z Direction            23
   Number of Grid Cells             36800


 Physical Dimensions, Mesh     7

   Length (m)                       2.000
   Width  (m)                       2.000
   Height (m)                       1.150
   Initial Time Step (s)            0.052

 Grid Dimensions, Mesh     8

   Cells in the X Direction            40
   Cells in the Y Direction            40
   Cells in the Z Direction            23
   Number of Grid Cells             36800


 Physical Dimensions, Mesh     8

   Length (m)                       2.000
   Width  (m)                       2.000
   Height (m)                       1.150
   Initial Time Step (s)            0.052

Total Number of Grid Cells        294400


 Miscellaneous Parameters

   Simulation Start Time (s)          0.0
   Simulation End Time (s)          400.0
   LES Calculation
   Eddy Viscosity:           Deardorff Model (C_DEARDORFF = 0.10)
   Near-wall Eddy Viscosity: WALE Model (C_WALE = 0.60)
   Turbulent Prandtl Number:         0.50
   Turbulent Schmidt Number:         0.50
   Background Pressure (Pa):    101325.00
   Ambient Temperature (C):         27.00


 Background Stratification

      Z (m)     P_0 (Pa)    TMP_0 (C)
   ------------------------------------
        1.12    101312.14     27.00
        1.07    101312.71     27.00
        1.02    101313.28     27.00
        0.97    101313.85     27.00
        0.92    101314.42     27.00
        0.88    101315.00     27.00
        0.82    101315.57     27.00
        0.77    101316.14     27.00
        0.72    101316.71     27.00
        0.67    101317.28     27.00
        0.62    101317.85     27.00
        0.57    101318.42     27.00
        0.52    101319.00     27.00
        0.47    101319.57     27.00
        0.42    101320.14     27.00
        0.38    101320.71     27.00
        0.32    101321.28     27.00
        0.27    101321.85     27.00
        0.22    101322.42     27.00
        0.17    101323.00     27.00
        0.12    101323.57     27.00
        0.07    101324.14     27.00
        0.02    101324.71     27.00


 Mass Fraction Transformation Matrix to Convert Species Mixtures (Columns) to Primitive Species (Rows)

                         AIR       METHANOL  PRODUCTS  WATER VA
   METHANOL              0.000000  1.000000  0.000000  0.000000
   NITROGEN              0.760088  0.000000  0.658813  0.000000
   OXYGEN                0.230276  0.000000  0.000000  0.000000
   CARBON DIOXIDE        0.000590  0.000000  0.183518  0.000000
   WATER VAPOR           0.009046  0.000000  0.157669  1.000000
   CARBON MONOXIDE       0.000000  0.000000  0.000000  0.000000
   SOOT                  0.000000  0.000000  0.000000  0.000000
   HYDROGEN              0.000000  0.000000  0.000000  0.000000
   HYDROGEN CYANIDE      0.000000  0.000000  0.000000  0.000000


 Primitive Species Information

   METHANOL
   Gas Species
   Molecular Weight (g/mol)            32.04186
   Ambient Density (kg/m^3)            1.301
   Enthalpy of Formation (J/kg)       -6.40E+06

   NITROGEN
   Gas Species
   Molecular Weight (g/mol)            28.01340
   Ambient Density (kg/m^3)            1.137
   Enthalpy of Formation (J/kg)        0.00E+00

   OXYGEN
   Gas Species
   Molecular Weight (g/mol)            31.99880
   Ambient Density (kg/m^3)            1.299
   Enthalpy of Formation (J/kg)        0.00E+00

   CARBON DIOXIDE
   Gas Species
   Molecular Weight (g/mol)            44.00950
   Ambient Density (kg/m^3)            1.787
   Enthalpy of Formation (J/kg)       -8.94E+06

   WATER VAPOR
   Gas Species
   Molecular Weight (g/mol)            18.01528
   Ambient Density (kg/m^3)            0.731
   Enthalpy of Formation (J/kg)       -1.34E+07

   CARBON MONOXIDE
   Gas Species
   Molecular Weight (g/mol)            28.01010
   Ambient Density (kg/m^3)            1.137
   Enthalpy of Formation (J/kg)       -3.95E+06

   SOOT
   Gas Species
   Molecular Weight (g/mol)            10.91042
   Ambient Density (kg/m^3)            0.443
   Enthalpy of Formation (J/kg)        0.00E+00

   HYDROGEN
   Gas Species
   Molecular Weight (g/mol)             2.01588
   Ambient Density (kg/m^3)            0.082
   Enthalpy of Formation (J/kg)        0.00E+00

   HYDROGEN CYANIDE
   Gas Species
   Molecular Weight (g/mol)            27.02534
   Ambient Density (kg/m^3)            1.097
   Enthalpy of Formation (J/kg)        4.92E+06


 Tracked (Lumped) Species Information

   AIR
   Molecular Weight (g/mol)            28.69856
   Ambient Density (kg/m^3)            1.165
   Initial Mass Fraction               1.000
   Enthalpy of Formation (J/kg)     -1.27E+05

   Sub Species                    Mass Fraction     Mole Fraction
   NITROGEN                       7.600885E-01      7.786791E-01
   OXYGEN                         2.302759E-01      2.065261E-01
   CARBON DIOXIDE                 5.896176E-04      3.844892E-04
   WATER VAPOR                    9.045969E-03      1.441034E-02
 
     Viscosity (kg/m/s) Ambient,  300 K:  1.82E-05
                                  500 K:  2.61E-05
                                 1000 K:  4.12E-05
                                 1500 K:  5.37E-05
   Therm. Cond. (W/m/K) Ambient,  300 K:  2.60E-02
                                  500 K:  3.81E-02
                                 1000 K:  6.69E-02
                                 1500 K:  9.27E-02
        Enthalpy (J/kg) Ambient,  300 K: -1.25E+05
                                  500 K:  8.11E+04
                                 1000 K:  6.33E+05
                                 1500 K:  1.23E+06
    Spec. Heat (J/kg/K) Ambient,  300 K:  1.02E+03
                                  500 K:  1.04E+03
                                 1000 K:  1.16E+03
                                 1500 K:  1.23E+03
   Diff. Coeff. (m^2/s) Ambient,  300 K:  2.07E-05
                                  500 K:  4.97E-05
                                 1000 K:  1.58E-04
                                 1500 K:  3.10E-04

   METHANOL
   Molecular Weight (g/mol)            32.04186
   Ambient Density (kg/m^3)            1.301
   Initial Mass Fraction               0.000
   Enthalpy of Formation (J/kg)     -6.40E+06

   Sub Species                    Mass Fraction     Mole Fraction
   METHANOL                       1.000000E+00      1.000000E+00
 
     Viscosity (kg/m/s) Ambient,  300 K:  9.74E-06
                                  500 K:  1.64E-05
                                 1000 K:  3.13E-05
                                 1500 K:  4.32E-05
   Therm. Cond. (W/m/K) Ambient,  300 K:  1.41E-02
                                  500 K:  3.22E-02
                                 1000 K:  9.21E-02
                                 1500 K:  1.50E-01
        Enthalpy (J/kg) Ambient,  300 K: -6.27E+06
                                  500 K: -5.95E+06
                                 1000 K: -4.76E+06
                                 1500 K: -3.22E+06
    Spec. Heat (J/kg/K) Ambient,  300 K:  1.38E+03
                                  500 K:  1.86E+03
                                 1000 K:  2.79E+03
                                 1500 K:  3.29E+03
   Diff. Coeff. (m^2/s) Ambient,  300 K:  1.58E-05
                                  500 K:  4.03E-05
                                 1000 K:  1.34E-04
                                 1500 K:  2.67E-04

   PRODUCTS
   Molecular Weight (g/mol)            27.44260
   Ambient Density (kg/m^3)            1.114
   Initial Mass Fraction               0.000
   Enthalpy of Formation (J/kg)     -3.76E+06

   Sub Species                    Mass Fraction     Mole Fraction
   NITROGEN                       6.588132E-01      6.453893E-01
   CARBON DIOXIDE                 1.835182E-01      1.144348E-01
   WATER VAPOR                    1.576686E-01      2.401759E-01
   CARBON MONOXIDE                0.000000E+00      0.000000E+00
   SOOT                           0.000000E+00      0.000000E+00
   HYDROGEN CYANIDE               0.000000E+00      0.000000E+00
 
     Viscosity (kg/m/s) Ambient,  300 K:  1.60E-05
                                  500 K:  2.34E-05
                                 1000 K:  3.87E-05
                                 1500 K:  5.15E-05
   Therm. Cond. (W/m/K) Ambient,  300 K:  2.35E-02
                                  500 K:  3.60E-02
                                 1000 K:  6.82E-02
                                 1500 K:  9.93E-02
        Enthalpy (J/kg) Ambient,  300 K: -3.76E+06
                                  500 K: -3.52E+06
                                 1000 K: -2.89E+06
                                 1500 K: -2.17E+06
    Spec. Heat (J/kg/K) Ambient,  300 K:  1.13E+03
                                  500 K:  1.19E+03
                                 1000 K:  1.36E+03
                                 1500 K:  1.48E+03
   Diff. Coeff. (m^2/s) Ambient,  300 K:  2.04E-05
                                  500 K:  5.02E-05
                                 1000 K:  1.63E-04
                                 1500 K:  3.21E-04

   WATER VAPOR
   Molecular Weight (g/mol)            18.01528
   Ambient Density (kg/m^3)            0.731
   Initial Mass Fraction               0.000
   Enthalpy of Formation (J/kg)     -1.34E+07

   Sub Species                    Mass Fraction     Mole Fraction
   WATER VAPOR                    1.000000E+00      1.000000E+00
 
     Viscosity (kg/m/s) Ambient,  300 K:  1.08E-05
                                  500 K:  1.77E-05
                                 1000 K:  3.58E-05
                                 1500 K:  5.21E-05
   Therm. Cond. (W/m/K) Ambient,  300 K:  2.01E-02
                                  500 K:  3.46E-02
                                 1000 K:  8.21E-02
                                 1500 K:  1.37E-01
        Enthalpy (J/kg) Ambient,  300 K: -1.34E+07
                                  500 K: -1.30E+07
                                 1000 K: -1.20E+07
                                 1500 K: -1.07E+07
    Spec. Heat (J/kg/K) Ambient,  300 K:  1.86E+03
                                  500 K:  1.96E+03
                                 1000 K:  2.29E+03
                                 1500 K:  2.63E+03
   Diff. Coeff. (m^2/s) Ambient,  300 K:  2.19E-05
                                  500 K:  5.78E-05
                                 1000 K:  1.98E-04
                                 1500 K:  3.95E-04
 
   Liq. Enthalpy (J/kg)     Melt  273 K: -1.60E+07
                                  323 K: -1.58E+07
                            Boil  373 K: -1.56E+07
 
   Liq. Spec. Heat (J/kg/K) Melt  273 K:  4.23E+03
                                  323 K:  4.18E+03
                            Boil  373 K:  4.22E+03
 
   Heat of Vapor. (J/kg)    Melt  273 K:  2.50E+06
                                  323 K:  2.39E+06
                            Boil  373 K:  2.27E+06


 Gas Phase Reaction Information

   Fuel                                           Heat of Combustion (kJ/kg)
   METHANOL                                                       20977.6211

   Stoichiometry

   Primitive Species Stoich. Coeff.
   Species ID                                                          Molar
   METHANOL                                                        -1.000000
   OXYGEN                                                          -1.500000
   CARBON DIOXIDE                                                   1.000000
   WATER VAPOR                                                      2.000000

   Tracked (Lumped) Species Stoich. Coeff.
   Species ID                                             Molar         Mass
   AIR                                                -7.263004    -6.505171
   METHANOL                                           -1.000000    -1.000000
   PRODUCTS                                            8.763004     7.505171

   Reaction Kinetics

   Arrhenius Parameters
   Pre-exponential:    Infinite
   Activation Energy:  N/A

   ODE Solver:  EXPLICIT EULER
   Extinction Model:  EXTINCTION 2
   Auto-Ignition Temperature (K):       0.0
   Critical Flame Temperature (K):   1530.2


 Material Information

   1 CONCRETE                                                    
     Emissivity                      0.900
     Density (kg/m3)                2200.0
     Specific Heat (kJ/kg/K)      1.05E+00
     Conductivity (W/m/K)          1.40E+00

   2 STEEL                                                       
     Eurocode 3
     Emissivity                      0.900
     Density (kg/m3)                7850.0
     Specific Heat (kJ/kg/K)      4.44E-01
     Conductivity (W/m/K)          5.31E+01


 Surface Conditions

   0 INERT (DEFAULT)

   1 Methanol33kW
     HRR Per Unit Area (kW/m2)        206.2
     METHANOL Mass Flux (kg/s/m2)   9.83E-03

   2 STEEL_1mm
     Material List
          1  STEEL
     Layer  1
        Thickness   (m):  0.00200
        Density (kg/m3):  7850.00
        STEEL, Mass fraction:    1.00
     Total surface density    15.700 kg/m2
     Reaction products considered from the first  0.50 layers.
     Solid Phase Node, Layer, Coordinates(m):
                    0      1       0.0000000
                    1      1       0.0020000
     Exposed Backing

   3 OPEN
     Passive Vent to Atmosphere

   4 MIRROR
     Symmetry Plane

   5 INTERPOLATED

   6 PERIODIC

   7 HVAC

   8 MASSLESS TRACER

   9 DROPLET

  10 EVACUATION_OUTFLOW
     Normal Velocity (m/s)         0.000

  11 MASSLESS TARGET

  12 PERIODIC FLOW ONLY


 Device Properties

   1 TC
     Smokeview ID                sensor

   2 particle_nozzles
     Flow Rate (L/min)               6.00
     Particle Class              water_droplets
     Smokeview ID                nozzle


 Cut-off Density and Temperature

    Minimum Temperature:   -10.0 C
    Maximum Temperature:  2726.8 C
    Minimum Density:  1.165E-01 kg/m3
    Maximum Density:  2.968E+00 kg/m3


 Device Coordinates

     1 Coords:      2.500000      1.999500      1.800000, Make: null, ID: First_Ceiling_Gas_Temperature, Quantity: THERMOCOUPLE
     2 Coords:      3.800000      1.999500      1.800000, Make: null, ID: Fourth_Ceiling_Gas_Temperature, Quantity: THERMOCOUPLE
     3 Coords:      3.000000      1.999500      1.800000, Make: null, ID: Second_Ceiling_Gas_Temperature, Quantity: THERMOCOUPLE
     4 Coords:      3.500000      1.999500      1.800000, Make: null, ID: Third_Ceiling_Gas_Temperature, Quantity: THERMOCOUPLE
     5 Coords:      2.500000      1.999500      1.800000, Make: TC, ID: First_Ceiling_Gas_Temperature1, Quantity: THERMOCOUPLE
     6 Coords:      3.800000      1.999500      1.800000, Make: TC, ID: Fourth_Ceiling_Gas_Temperature1, Quantity: THERMOCOUPLE
     7 Coords:      3.000000      1.999500      1.800000, Make: TC, ID: Second_Ceiling_Gas_Temperature1, Quantity: THERMOCOUPLE
     8 Coords:      3.500000      1.999500      1.800000, Make: TC, ID: Third_Ceiling_Gas_Temperature1, Quantity: THERMOCOUPLE
     9 Coords:      3.000000      1.999500      0.500000, Make: null, ID: 0.5_TREE1_TEMPERATURE_THERMOCOUPLE, Quantity: TEMPERATURE
    10 Coords:      3.000000      1.999500      0.500000, Make: null, ID: 0.5_TREE1_THERMOCOUPLE, Quantity: THERMOCOUPLE
    11 Coords:      3.000000      1.999500      0.700000, Make: null, ID: 0.7_TREE1_TEMPERATURE_THERMOCOUPLE, Quantity: TEMPERATURE
    12 Coords:      3.000000      1.999500      0.700000, Make: null, ID: 0.7_TREE1_THERMOCOUPLE, Quantity: THERMOCOUPLE
    13 Coords:      3.000000      1.999500      0.900000, Make: null, ID: 0.9_TREE1_TEMPERATURE_THERMOCOUPLE, Quantity: TEMPERATURE
    14 Coords:      3.000000      1.999500      0.900000, Make: null, ID: 0.9_TREE1_THERMOCOUPLE, Quantity: THERMOCOUPLE
    15 Coords:      3.000000      1.999500      1.200000, Make: null, ID: 1.2_TREE1_TEMPERATURE_THERMOCOUPLE, Quantity: TEMPERATURE
    16 Coords:      3.000000      1.999500      1.200000, Make: null, ID: 1.2_TREE1_THERMOCOUPLE, Quantity: THERMOCOUPLE
    17 Coords:      3.000000      1.999500      1.500000, Make: null, ID: 1.5_TREE1_TEMPERATURE_THERMOCOUPLE, Quantity: TEMPERATURE
    18 Coords:      3.000000      1.999500      1.500000, Make: null, ID: 1.5_TREE1_THERMOCOUPLE, Quantity: THERMOCOUPLE
    19 Coords:      3.800000      1.999500      0.500000, Make: null, ID: 0.5_TREE2_TEMPERATURE_THERMOCOUPLE, Quantity: TEMPERATURE
    20 Coords:      3.800000      1.999500      0.500000, Make: null, ID: 0.5_TREE2_THERMOCOUPLE, Quantity: THERMOCOUPLE
    21 Coords:      3.800000      1.999500      0.700000, Make: null, ID: 0.7_TREE2_TEMPERATURE_THERMOCOUPLE, Quantity: TEMPERATURE
    22 Coords:      3.800000      1.999500      0.700000, Make: null, ID: 0.7_TREE2_THERMOCOUPLE, Quantity: THERMOCOUPLE
    23 Coords:      3.800000      1.999500      0.900000, Make: null, ID: 0.9_TREE2_TEMPERATURE_THERMOCOUPLE, Quantity: TEMPERATURE
    24 Coords:      3.800000      1.999500      0.900000, Make: null, ID: 0.9_TREE2_THERMOCOUPLE, Quantity: THERMOCOUPLE
    25 Coords:      3.800000      1.999500      1.200000, Make: null, ID: 1.2_TREE2_TEMPERATURE_THERMOCOUPLE, Quantity: TEMPERATURE
    26 Coords:      3.800000      1.999500      1.200000, Make: null, ID: 1.2_TREE2_THERMOCOUPLE, Quantity: THERMOCOUPLE
    27 Coords:      3.800000      1.999500      1.500000, Make: null, ID: 1.5_TREE2_TEMPERATURE_THERMOCOUPLE, Quantity: TEMPERATURE
    28 Coords:      3.800000      1.999500      1.500000, Make: null, ID: 1.5_TREE2_THERMOCOUPLE, Quantity: THERMOCOUPLE
    29 Coords:      1.999500      1.999500      1.800000, Make: particle_nozzles, ID: nozzle, Quantity: TIME
    30 Coords:      1.000000      1.000000      1.800000, Make: particle_nozzles, ID: nozzle, Quantity: TIME
    31 Coords:      3.000000      1.000000      1.800000, Make: particle_nozzles, ID: nozzle, Quantity: TIME
    32 Coords:      1.000000      3.000000      1.800000, Make: particle_nozzles, ID: nozzle, Quantity: TIME
    33 Coords:      3.000000      3.000000      1.800000, Make: particle_nozzles, ID: nozzle, Quantity: TIME


 Slice File Information, Mesh     1

   Sampling Interval (s)             0.400

   1 Nodes:  21  21   0  40   0  23, Quantity: TEMPERATURE
   2 Nodes:  21  21   0  40   0  23, Quantity: U-VELOCITY
   3 Nodes:  21  21   0  40   0  23, Quantity: V-VELOCITY
   4 Nodes:  21  21   0  40   0  23, Quantity: W-VELOCITY
   5 Nodes:   0  40  21  21   0  23, Quantity: TEMPERATURE
   6 Nodes:   0  40  21  21   0  23, Quantity: U-VELOCITY
   7 Nodes:   0  40  21  21   0  23, Quantity: V-VELOCITY
   8 Nodes:   0  40  21  21   0  23, Quantity: W-VELOCITY
   9 Nodes:   0  40  40  40   0  23, Quantity: TEMPERATURE
  10 Nodes:   0  40  40  40   0  23, Quantity: U-VELOCITY
  11 Nodes:   0  40  40  40   0  23, Quantity: V-VELOCITY
  12 Nodes:   0  40  40  40   0  23, Quantity: W-VELOCITY
  13 Nodes:  40  40   0  40   0  23, Quantity: TEMPERATURE
  14 Nodes:  40  40   0  40   0  23, Quantity: U-VELOCITY
  15 Nodes:  40  40   0  40   0  23, Quantity: V-VELOCITY
  16 Nodes:  40  40   0  40   0  23, Quantity: W-VELOCITY
  17 Nodes:  20  20   0  40   0  23, Quantity: TEMPERATURE
  18 Nodes:  20  20   0  40   0  23, Quantity: U-VELOCITY
  19 Nodes:  20  20   0  40   0  23, Quantity: V-VELOCITY
  20 Nodes:  20  20   0  40   0  23, Quantity: W-VELOCITY
  21 Nodes:   0  40  20  20   0  23, Quantity: TEMPERATURE
  22 Nodes:   0  40  20  20   0  23, Quantity: U-VELOCITY
  23 Nodes:   0  40  20  20   0  23, Quantity: V-VELOCITY
  24 Nodes:   0  40  20  20   0  23, Quantity: W-VELOCITY
  25 Nodes:   0  40  40  40   0  23, Quantity: TEMPERATURE
  26 Nodes:   0  40  40  40   0  23, Quantity: U-VELOCITY
  27 Nodes:   0  40  40  40   0  23, Quantity: V-VELOCITY
  28 Nodes:   0  40  40  40   0  23, Quantity: W-VELOCITY
  29 Nodes:  40  40   0  40   0  23, Quantity: TEMPERATURE
  30 Nodes:  40  40   0  40   0  23, Quantity: U-VELOCITY
  31 Nodes:  40  40   0  40   0  23, Quantity: V-VELOCITY
  32 Nodes:  40  40   0  40   0  23, Quantity: W-VELOCITY
  33 Nodes:  21  21   0  40   0  23, Quantity: VELOCITY
  34 Nodes:   0  40  21  21   0  23, Quantity: VELOCITY
  35 Nodes:   0  40  40  40   0  23, Quantity: VELOCITY
  36 Nodes:  40  40   0  40   0  23, Quantity: VELOCITY
  37 Nodes:  21  21   0  40   0  23, Quantity: WATER VAPOR MASS FRACTION
  38 Nodes:   0  40  21  21   0  23, Quantity: WATER VAPOR MASS FRACTION
  39 Nodes:   0  40  40  40   0  23, Quantity: WATER VAPOR MASS FRACTION
  40 Nodes:  40  40   0  40   0  23, Quantity: WATER VAPOR MASS FRACTION


 Slice File Information, Mesh     2

   Sampling Interval (s)             0.400

   1 Nodes:  21  21   0  40   0  23, Quantity: TEMPERATURE
   2 Nodes:  21  21   0  40   0  23, Quantity: U-VELOCITY
   3 Nodes:  21  21   0  40   0  23, Quantity: V-VELOCITY
   4 Nodes:  21  21   0  40   0  23, Quantity: W-VELOCITY
   5 Nodes:   0  40  21  21   0  23, Quantity: TEMPERATURE
   6 Nodes:   0  40  21  21   0  23, Quantity: U-VELOCITY
   7 Nodes:   0  40  21  21   0  23, Quantity: V-VELOCITY
   8 Nodes:   0  40  21  21   0  23, Quantity: W-VELOCITY
   9 Nodes:   0  40  40  40   0  23, Quantity: TEMPERATURE
  10 Nodes:   0  40  40  40   0  23, Quantity: U-VELOCITY
  11 Nodes:   0  40  40  40   0  23, Quantity: V-VELOCITY
  12 Nodes:   0  40  40  40   0  23, Quantity: W-VELOCITY
  13 Nodes:   1   1   0  40   0  23, Quantity: TEMPERATURE
  14 Nodes:   1   1   0  40   0  23, Quantity: U-VELOCITY
  15 Nodes:   1   1   0  40   0  23, Quantity: V-VELOCITY
  16 Nodes:   1   1   0  40   0  23, Quantity: W-VELOCITY
  17 Nodes:  20  20   0  40   0  23, Quantity: TEMPERATURE
  18 Nodes:  20  20   0  40   0  23, Quantity: U-VELOCITY
  19 Nodes:  20  20   0  40   0  23, Quantity: V-VELOCITY
  20 Nodes:  20  20   0  40   0  23, Quantity: W-VELOCITY
  21 Nodes:   0  40  20  20   0  23, Quantity: TEMPERATURE
  22 Nodes:   0  40  20  20   0  23, Quantity: U-VELOCITY
  23 Nodes:   0  40  20  20   0  23, Quantity: V-VELOCITY
  24 Nodes:   0  40  20  20   0  23, Quantity: W-VELOCITY
  25 Nodes:   0  40  40  40   0  23, Quantity: TEMPERATURE
  26 Nodes:   0  40  40  40   0  23, Quantity: U-VELOCITY
  27 Nodes:   0  40  40  40   0  23, Quantity: V-VELOCITY
  28 Nodes:   0  40  40  40   0  23, Quantity: W-VELOCITY
  29 Nodes:   0   0   0  40   0  23, Quantity: TEMPERATURE
  30 Nodes:   0   0   0  40   0  23, Quantity: U-VELOCITY
  31 Nodes:   0   0   0  40   0  23, Quantity: V-VELOCITY
  32 Nodes:   0   0   0  40   0  23, Quantity: W-VELOCITY
  33 Nodes:  21  21   0  40   0  23, Quantity: VELOCITY
  34 Nodes:   0  40  21  21   0  23, Quantity: VELOCITY
  35 Nodes:   0  40  40  40   0  23, Quantity: VELOCITY
  36 Nodes:   1   1   0  40   0  23, Quantity: VELOCITY
  37 Nodes:  21  21   0  40   0  23, Quantity: WATER VAPOR MASS FRACTION
  38 Nodes:   0  40  21  21   0  23, Quantity: WATER VAPOR MASS FRACTION
  39 Nodes:   0  40  40  40   0  23, Quantity: WATER VAPOR MASS FRACTION
  40 Nodes:   1   1   0  40   0  23, Quantity: WATER VAPOR MASS FRACTION


 Slice File Information, Mesh     3

   Sampling Interval (s)             0.400

   1 Nodes:  21  21   0  40   0  23, Quantity: TEMPERATURE
   2 Nodes:  21  21   0  40   0  23, Quantity: U-VELOCITY
   3 Nodes:  21  21   0  40   0  23, Quantity: V-VELOCITY
   4 Nodes:  21  21   0  40   0  23, Quantity: W-VELOCITY
   5 Nodes:   0  40  21  21   0  23, Quantity: TEMPERATURE
   6 Nodes:   0  40  21  21   0  23, Quantity: U-VELOCITY
   7 Nodes:   0  40  21  21   0  23, Quantity: V-VELOCITY
   8 Nodes:   0  40  21  21   0  23, Quantity: W-VELOCITY
   9 Nodes:   0  40   1   1   0  23, Quantity: TEMPERATURE
  10 Nodes:   0  40   1   1   0  23, Quantity: U-VELOCITY
  11 Nodes:   0  40   1   1   0  23, Quantity: V-VELOCITY
  12 Nodes:   0  40   1   1   0  23, Quantity: W-VELOCITY
  13 Nodes:  40  40   0  40   0  23, Quantity: TEMPERATURE
  14 Nodes:  40  40   0  40   0  23, Quantity: U-VELOCITY
  15 Nodes:  40  40   0  40   0  23, Quantity: V-VELOCITY
  16 Nodes:  40  40   0  40   0  23, Quantity: W-VELOCITY
  17 Nodes:  20  20   0  40   0  23, Quantity: TEMPERATURE
  18 Nodes:  20  20   0  40   0  23, Quantity: U-VELOCITY
  19 Nodes:  20  20   0  40   0  23, Quantity: V-VELOCITY
  20 Nodes:  20  20   0  40   0  23, Quantity: W-VELOCITY
  21 Nodes:   0  40  20  20   0  23, Quantity: TEMPERATURE
  22 Nodes:   0  40  20  20   0  23, Quantity: U-VELOCITY
  23 Nodes:   0  40  20  20   0  23, Quantity: V-VELOCITY
  24 Nodes:   0  40  20  20   0  23, Quantity: W-VELOCITY
  25 Nodes:   0  40   0   0   0  23, Quantity: TEMPERATURE
  26 Nodes:   0  40   0   0   0  23, Quantity: U-VELOCITY
  27 Nodes:   0  40   0   0   0  23, Quantity: V-VELOCITY
  28 Nodes:   0  40   0   0   0  23, Quantity: W-VELOCITY
  29 Nodes:  40  40   0  40   0  23, Quantity: TEMPERATURE
  30 Nodes:  40  40   0  40   0  23, Quantity: U-VELOCITY
  31 Nodes:  40  40   0  40   0  23, Quantity: V-VELOCITY
  32 Nodes:  40  40   0  40   0  23, Quantity: W-VELOCITY
  33 Nodes:  21  21   0  40   0  23, Quantity: VELOCITY
  34 Nodes:   0  40  21  21   0  23, Quantity: VELOCITY
  35 Nodes:   0  40   1   1   0  23, Quantity: VELOCITY
  36 Nodes:  40  40   0  40   0  23, Quantity: VELOCITY
  37 Nodes:  21  21   0  40   0  23, Quantity: WATER VAPOR MASS FRACTION
  38 Nodes:   0  40  21  21   0  23, Quantity: WATER VAPOR MASS FRACTION
  39 Nodes:   0  40   1   1   0  23, Quantity: WATER VAPOR MASS FRACTION
  40 Nodes:  40  40   0  40   0  23, Quantity: WATER VAPOR MASS FRACTION


 Slice File Information, Mesh     4

   Sampling Interval (s)             0.400

   1 Nodes:  21  21   0  40   0  23, Quantity: TEMPERATURE
   2 Nodes:  21  21   0  40   0  23, Quantity: U-VELOCITY
   3 Nodes:  21  21   0  40   0  23, Quantity: V-VELOCITY
   4 Nodes:  21  21   0  40   0  23, Quantity: W-VELOCITY
   5 Nodes:   0  40  21  21   0  23, Quantity: TEMPERATURE
   6 Nodes:   0  40  21  21   0  23, Quantity: U-VELOCITY
   7 Nodes:   0  40  21  21   0  23, Quantity: V-VELOCITY
   8 Nodes:   0  40  21  21   0  23, Quantity: W-VELOCITY
   9 Nodes:   0  40   1   1   0  23, Quantity: TEMPERATURE
  10 Nodes:   0  40   1   1   0  23, Quantity: U-VELOCITY
  11 Nodes:   0  40   1   1   0  23, Quantity: V-VELOCITY
  12 Nodes:   0  40   1   1   0  23, Quantity: W-VELOCITY
  13 Nodes:   1   1   0  40   0  23, Quantity: TEMPERATURE
  14 Nodes:   1   1   0  40   0  23, Quantity: U-VELOCITY
  15 Nodes:   1   1   0  40   0  23, Quantity: V-VELOCITY
  16 Nodes:   1   1   0  40   0  23, Quantity: W-VELOCITY
  17 Nodes:  20  20   0  40   0  23, Quantity: TEMPERATURE
  18 Nodes:  20  20   0  40   0  23, Quantity: U-VELOCITY
  19 Nodes:  20  20   0  40   0  23, Quantity: V-VELOCITY
  20 Nodes:  20  20   0  40   0  23, Quantity: W-VELOCITY
  21 Nodes:   0  40  20  20   0  23, Quantity: TEMPERATURE
  22 Nodes:   0  40  20  20   0  23, Quantity: U-VELOCITY
  23 Nodes:   0  40  20  20   0  23, Quantity: V-VELOCITY
  24 Nodes:   0  40  20  20   0  23, Quantity: W-VELOCITY
  25 Nodes:   0  40   0   0   0  23, Quantity: TEMPERATURE
  26 Nodes:   0  40   0   0   0  23, Quantity: U-VELOCITY
  27 Nodes:   0  40   0   0   0  23, Quantity: V-VELOCITY
  28 Nodes:   0  40   0   0   0  23, Quantity: W-VELOCITY
  29 Nodes:   0   0   0  40   0  23, Quantity: TEMPERATURE
  30 Nodes:   0   0   0  40   0  23, Quantity: U-VELOCITY
  31 Nodes:   0   0   0  40   0  23, Quantity: V-VELOCITY
  32 Nodes:   0   0   0  40   0  23, Quantity: W-VELOCITY
  33 Nodes:  21  21   0  40   0  23, Quantity: VELOCITY
  34 Nodes:   0  40  21  21   0  23, Quantity: VELOCITY
  35 Nodes:   0  40   1   1   0  23, Quantity: VELOCITY
  36 Nodes:   1   1   0  40   0  23, Quantity: VELOCITY
  37 Nodes:  21  21   0  40   0  23, Quantity: WATER VAPOR MASS FRACTION
  38 Nodes:   0  40  21  21   0  23, Quantity: WATER VAPOR MASS FRACTION
  39 Nodes:   0  40   1   1   0  23, Quantity: WATER VAPOR MASS FRACTION
  40 Nodes:   1   1   0  40   0  23, Quantity: WATER VAPOR MASS FRACTION


 Slice File Information, Mesh     5

   Sampling Interval (s)             0.400

   1 Nodes:  21  21   0  40   0  23, Quantity: TEMPERATURE
   2 Nodes:  21  21   0  40   0  23, Quantity: U-VELOCITY
   3 Nodes:  21  21   0  40   0  23, Quantity: V-VELOCITY
   4 Nodes:  21  21   0  40   0  23, Quantity: W-VELOCITY
   5 Nodes:   0  40  21  21   0  23, Quantity: TEMPERATURE
   6 Nodes:   0  40  21  21   0  23, Quantity: U-VELOCITY
   7 Nodes:   0  40  21  21   0  23, Quantity: V-VELOCITY
   8 Nodes:   0  40  21  21   0  23, Quantity: W-VELOCITY
   9 Nodes:   0  40   0  40  14  14, Quantity: TEMPERATURE
  10 Nodes:   0  40   0  40  14  14, Quantity: U-VELOCITY
  11 Nodes:   0  40   0  40  14  14, Quantity: V-VELOCITY
  12 Nodes:   0  40   0  40  14  14, Quantity: W-VELOCITY
  13 Nodes:   0  40   0  40   4   4, Quantity: TEMPERATURE
  14 Nodes:   0  40   0  40   4   4, Quantity: U-VELOCITY
  15 Nodes:   0  40   0  40   4   4, Quantity: V-VELOCITY
  16 Nodes:   0  40   0  40   4   4, Quantity: W-VELOCITY
  17 Nodes:   0  40  40  40   0  23, Quantity: TEMPERATURE
  18 Nodes:   0  40  40  40   0  23, Quantity: U-VELOCITY
  19 Nodes:   0  40  40  40   0  23, Quantity: V-VELOCITY
  20 Nodes:   0  40  40  40   0  23, Quantity: W-VELOCITY
  21 Nodes:  40  40   0  40   0  23, Quantity: TEMPERATURE
  22 Nodes:  40  40   0  40   0  23, Quantity: U-VELOCITY
  23 Nodes:  40  40   0  40   0  23, Quantity: V-VELOCITY
  24 Nodes:  40  40   0  40   0  23, Quantity: W-VELOCITY
  25 Nodes:  20  20   0  40   0  23, Quantity: TEMPERATURE
  26 Nodes:  20  20   0  40   0  23, Quantity: U-VELOCITY
  27 Nodes:  20  20   0  40   0  23, Quantity: V-VELOCITY
  28 Nodes:  20  20   0  40   0  23, Quantity: W-VELOCITY
  29 Nodes:   0  40  20  20   0  23, Quantity: TEMPERATURE
  30 Nodes:   0  40  20  20   0  23, Quantity: U-VELOCITY
  31 Nodes:   0  40  20  20   0  23, Quantity: V-VELOCITY
  32 Nodes:   0  40  20  20   0  23, Quantity: W-VELOCITY
  33 Nodes:   0  40   0  40  13  13, Quantity: TEMPERATURE
  34 Nodes:   0  40   0  40  13  13, Quantity: U-VELOCITY
  35 Nodes:   0  40   0  40  13  13, Quantity: V-VELOCITY
  36 Nodes:   0  40   0  40  13  13, Quantity: W-VELOCITY
  37 Nodes:   0  40   0  40   3   3, Quantity: TEMPERATURE
  38 Nodes:   0  40   0  40   3   3, Quantity: U-VELOCITY
  39 Nodes:   0  40   0  40   3   3, Quantity: V-VELOCITY
  40 Nodes:   0  40   0  40   3   3, Quantity: W-VELOCITY
  41 Nodes:   0  40  40  40   0  23, Quantity: TEMPERATURE
  42 Nodes:   0  40  40  40   0  23, Quantity: U-VELOCITY
  43 Nodes:   0  40  40  40   0  23, Quantity: V-VELOCITY
  44 Nodes:   0  40  40  40   0  23, Quantity: W-VELOCITY
  45 Nodes:  40  40   0  40   0  23, Quantity: TEMPERATURE
  46 Nodes:  40  40   0  40   0  23, Quantity: U-VELOCITY
  47 Nodes:  40  40   0  40   0  23, Quantity: V-VELOCITY
  48 Nodes:  40  40   0  40   0  23, Quantity: W-VELOCITY
  49 Nodes:  21  21   0  40   0  23, Quantity: VELOCITY
  50 Nodes:   0  40  21  21   0  23, Quantity: VELOCITY
  51 Nodes:   0  40   0  40  14  14, Quantity: VELOCITY
  52 Nodes:   0  40   0  40   4   4, Quantity: VELOCITY
  53 Nodes:   0  40  40  40   0  23, Quantity: VELOCITY
  54 Nodes:  40  40   0  40   0  23, Quantity: VELOCITY
  55 Nodes:  21  21   0  40   0  23, Quantity: WATER VAPOR MASS FRACTION
  56 Nodes:   0  40  21  21   0  23, Quantity: WATER VAPOR MASS FRACTION
  57 Nodes:   0  40   0  40  14  14, Quantity: WATER VAPOR MASS FRACTION
  58 Nodes:   0  40   0  40   4   4, Quantity: WATER VAPOR MASS FRACTION
  59 Nodes:   0  40  40  40   0  23, Quantity: WATER VAPOR MASS FRACTION
  60 Nodes:  40  40   0  40   0  23, Quantity: WATER VAPOR MASS FRACTION


 Slice File Information, Mesh     6

   Sampling Interval (s)             0.400

   1 Nodes:  21  21   0  40   0  23, Quantity: TEMPERATURE
   2 Nodes:  21  21   0  40   0  23, Quantity: U-VELOCITY
   3 Nodes:  21  21   0  40   0  23, Quantity: V-VELOCITY
   4 Nodes:  21  21   0  40   0  23, Quantity: W-VELOCITY
   5 Nodes:   0  40  21  21   0  23, Quantity: TEMPERATURE
   6 Nodes:   0  40  21  21   0  23, Quantity: U-VELOCITY
   7 Nodes:   0  40  21  21   0  23, Quantity: V-VELOCITY
   8 Nodes:   0  40  21  21   0  23, Quantity: W-VELOCITY
   9 Nodes:   0  40   0  40  14  14, Quantity: TEMPERATURE
  10 Nodes:   0  40   0  40  14  14, Quantity: U-VELOCITY
  11 Nodes:   0  40   0  40  14  14, Quantity: V-VELOCITY
  12 Nodes:   0  40   0  40  14  14, Quantity: W-VELOCITY
  13 Nodes:   0  40   0  40   4   4, Quantity: TEMPERATURE
  14 Nodes:   0  40   0  40   4   4, Quantity: U-VELOCITY
  15 Nodes:   0  40   0  40   4   4, Quantity: V-VELOCITY
  16 Nodes:   0  40   0  40   4   4, Quantity: W-VELOCITY
  17 Nodes:   0  40  40  40   0  23, Quantity: TEMPERATURE
  18 Nodes:   0  40  40  40   0  23, Quantity: U-VELOCITY
  19 Nodes:   0  40  40  40   0  23, Quantity: V-VELOCITY
  20 Nodes:   0  40  40  40   0  23, Quantity: W-VELOCITY
  21 Nodes:   1   1   0  40   0  23, Quantity: TEMPERATURE
  22 Nodes:   1   1   0  40   0  23, Quantity: U-VELOCITY
  23 Nodes:   1   1   0  40   0  23, Quantity: V-VELOCITY
  24 Nodes:   1   1   0  40   0  23, Quantity: W-VELOCITY
  25 Nodes:  20  20   0  40   0  23, Quantity: TEMPERATURE
  26 Nodes:  20  20   0  40   0  23, Quantity: U-VELOCITY
  27 Nodes:  20  20   0  40   0  23, Quantity: V-VELOCITY
  28 Nodes:  20  20   0  40   0  23, Quantity: W-VELOCITY
  29 Nodes:   0  40  20  20   0  23, Quantity: TEMPERATURE
  30 Nodes:   0  40  20  20   0  23, Quantity: U-VELOCITY
  31 Nodes:   0  40  20  20   0  23, Quantity: V-VELOCITY
  32 Nodes:   0  40  20  20   0  23, Quantity: W-VELOCITY
  33 Nodes:   0  40   0  40  13  13, Quantity: TEMPERATURE
  34 Nodes:   0  40   0  40  13  13, Quantity: U-VELOCITY
  35 Nodes:   0  40   0  40  13  13, Quantity: V-VELOCITY
  36 Nodes:   0  40   0  40  13  13, Quantity: W-VELOCITY
  37 Nodes:   0  40   0  40   3   3, Quantity: TEMPERATURE
  38 Nodes:   0  40   0  40   3   3, Quantity: U-VELOCITY
  39 Nodes:   0  40   0  40   3   3, Quantity: V-VELOCITY
  40 Nodes:   0  40   0  40   3   3, Quantity: W-VELOCITY
  41 Nodes:   0  40  40  40   0  23, Quantity: TEMPERATURE
  42 Nodes:   0  40  40  40   0  23, Quantity: U-VELOCITY
  43 Nodes:   0  40  40  40   0  23, Quantity: V-VELOCITY
  44 Nodes:   0  40  40  40   0  23, Quantity: W-VELOCITY
  45 Nodes:   0   0   0  40   0  23, Quantity: TEMPERATURE
  46 Nodes:   0   0   0  40   0  23, Quantity: U-VELOCITY
  47 Nodes:   0   0   0  40   0  23, Quantity: V-VELOCITY
  48 Nodes:   0   0   0  40   0  23, Quantity: W-VELOCITY
  49 Nodes:  21  21   0  40   0  23, Quantity: VELOCITY
  50 Nodes:   0  40  21  21   0  23, Quantity: VELOCITY
  51 Nodes:   0  40   0  40  14  14, Quantity: VELOCITY
  52 Nodes:   0  40   0  40   4   4, Quantity: VELOCITY
  53 Nodes:   0  40  40  40   0  23, Quantity: VELOCITY
  54 Nodes:   1   1   0  40   0  23, Quantity: VELOCITY
  55 Nodes:  21  21   0  40   0  23, Quantity: WATER VAPOR MASS FRACTION
  56 Nodes:   0  40  21  21   0  23, Quantity: WATER VAPOR MASS FRACTION
  57 Nodes:   0  40   0  40  14  14, Quantity: WATER VAPOR MASS FRACTION
  58 Nodes:   0  40   0  40   4   4, Quantity: WATER VAPOR MASS FRACTION
  59 Nodes:   0  40  40  40   0  23, Quantity: WATER VAPOR MASS FRACTION
  60 Nodes:   1   1   0  40   0  23, Quantity: WATER VAPOR MASS FRACTION


 Slice File Information, Mesh     7

   Sampling Interval (s)             0.400

   1 Nodes:  21  21   0  40   0  23, Quantity: TEMPERATURE
   2 Nodes:  21  21   0  40   0  23, Quantity: U-VELOCITY
   3 Nodes:  21  21   0  40   0  23, Quantity: V-VELOCITY
   4 Nodes:  21  21   0  40   0  23, Quantity: W-VELOCITY
   5 Nodes:   0  40  21  21   0  23, Quantity: TEMPERATURE
   6 Nodes:   0  40  21  21   0  23, Quantity: U-VELOCITY
   7 Nodes:   0  40  21  21   0  23, Quantity: V-VELOCITY
   8 Nodes:   0  40  21  21   0  23, Quantity: W-VELOCITY
   9 Nodes:   0  40   0  40  14  14, Quantity: TEMPERATURE
  10 Nodes:   0  40   0  40  14  14, Quantity: U-VELOCITY
  11 Nodes:   0  40   0  40  14  14, Quantity: V-VELOCITY
  12 Nodes:   0  40   0  40  14  14, Quantity: W-VELOCITY
  13 Nodes:   0  40   0  40   4   4, Quantity: TEMPERATURE
  14 Nodes:   0  40   0  40   4   4, Quantity: U-VELOCITY
  15 Nodes:   0  40   0  40   4   4, Quantity: V-VELOCITY
  16 Nodes:   0  40   0  40   4   4, Quantity: W-VELOCITY
  17 Nodes:   0  40   1   1   0  23, Quantity: TEMPERATURE
  18 Nodes:   0  40   1   1   0  23, Quantity: U-VELOCITY
  19 Nodes:   0  40   1   1   0  23, Quantity: V-VELOCITY
  20 Nodes:   0  40   1   1   0  23, Quantity: W-VELOCITY
  21 Nodes:  40  40   0  40   0  23, Quantity: TEMPERATURE
  22 Nodes:  40  40   0  40   0  23, Quantity: U-VELOCITY
  23 Nodes:  40  40   0  40   0  23, Quantity: V-VELOCITY
  24 Nodes:  40  40   0  40   0  23, Quantity: W-VELOCITY
  25 Nodes:  20  20   0  40   0  23, Quantity: TEMPERATURE
  26 Nodes:  20  20   0  40   0  23, Quantity: U-VELOCITY
  27 Nodes:  20  20   0  40   0  23, Quantity: V-VELOCITY
  28 Nodes:  20  20   0  40   0  23, Quantity: W-VELOCITY
  29 Nodes:   0  40  20  20   0  23, Quantity: TEMPERATURE
  30 Nodes:   0  40  20  20   0  23, Quantity: U-VELOCITY
  31 Nodes:   0  40  20  20   0  23, Quantity: V-VELOCITY
  32 Nodes:   0  40  20  20   0  23, Quantity: W-VELOCITY
  33 Nodes:   0  40   0  40  13  13, Quantity: TEMPERATURE
  34 Nodes:   0  40   0  40  13  13, Quantity: U-VELOCITY
  35 Nodes:   0  40   0  40  13  13, Quantity: V-VELOCITY
  36 Nodes:   0  40   0  40  13  13, Quantity: W-VELOCITY
  37 Nodes:   0  40   0  40   3   3, Quantity: TEMPERATURE
  38 Nodes:   0  40   0  40   3   3, Quantity: U-VELOCITY
  39 Nodes:   0  40   0  40   3   3, Quantity: V-VELOCITY
  40 Nodes:   0  40   0  40   3   3, Quantity: W-VELOCITY
  41 Nodes:   0  40   0   0   0  23, Quantity: TEMPERATURE
  42 Nodes:   0  40   0   0   0  23, Quantity: U-VELOCITY
  43 Nodes:   0  40   0   0   0  23, Quantity: V-VELOCITY
  44 Nodes:   0  40   0   0   0  23, Quantity: W-VELOCITY
  45 Nodes:  40  40   0  40   0  23, Quantity: TEMPERATURE
  46 Nodes:  40  40   0  40   0  23, Quantity: U-VELOCITY
  47 Nodes:  40  40   0  40   0  23, Quantity: V-VELOCITY
  48 Nodes:  40  40   0  40   0  23, Quantity: W-VELOCITY
  49 Nodes:  21  21   0  40   0  23, Quantity: VELOCITY
  50 Nodes:   0  40  21  21   0  23, Quantity: VELOCITY
  51 Nodes:   0  40   0  40  14  14, Quantity: VELOCITY
  52 Nodes:   0  40   0  40   4   4, Quantity: VELOCITY
  53 Nodes:   0  40   1   1   0  23, Quantity: VELOCITY
  54 Nodes:  40  40   0  40   0  23, Quantity: VELOCITY
  55 Nodes:  21  21   0  40   0  23, Quantity: WATER VAPOR MASS FRACTION
  56 Nodes:   0  40  21  21   0  23, Quantity: WATER VAPOR MASS FRACTION
  57 Nodes:   0  40   0  40  14  14, Quantity: WATER VAPOR MASS FRACTION
  58 Nodes:   0  40   0  40   4   4, Quantity: WATER VAPOR MASS FRACTION
  59 Nodes:   0  40   1   1   0  23, Quantity: WATER VAPOR MASS FRACTION
  60 Nodes:  40  40   0  40   0  23, Quantity: WATER VAPOR MASS FRACTION


 Slice File Information, Mesh     8

   Sampling Interval (s)             0.400

   1 Nodes:  21  21   0  40   0  23, Quantity: TEMPERATURE
   2 Nodes:  21  21   0  40   0  23, Quantity: U-VELOCITY
   3 Nodes:  21  21   0  40   0  23, Quantity: V-VELOCITY
   4 Nodes:  21  21   0  40   0  23, Quantity: W-VELOCITY
   5 Nodes:   0  40  21  21   0  23, Quantity: TEMPERATURE
   6 Nodes:   0  40  21  21   0  23, Quantity: U-VELOCITY
   7 Nodes:   0  40  21  21   0  23, Quantity: V-VELOCITY
   8 Nodes:   0  40  21  21   0  23, Quantity: W-VELOCITY
   9 Nodes:   0  40   0  40  14  14, Quantity: TEMPERATURE
  10 Nodes:   0  40   0  40  14  14, Quantity: U-VELOCITY
  11 Nodes:   0  40   0  40  14  14, Quantity: V-VELOCITY
  12 Nodes:   0  40   0  40  14  14, Quantity: W-VELOCITY
  13 Nodes:   0  40   0  40   4   4, Quantity: TEMPERATURE
  14 Nodes:   0  40   0  40   4   4, Quantity: U-VELOCITY
  15 Nodes:   0  40   0  40   4   4, Quantity: V-VELOCITY
  16 Nodes:   0  40   0  40   4   4, Quantity: W-VELOCITY
  17 Nodes:   0  40   1   1   0  23, Quantity: TEMPERATURE
  18 Nodes:   0  40   1   1   0  23, Quantity: U-VELOCITY
  19 Nodes:   0  40   1   1   0  23, Quantity: V-VELOCITY
  20 Nodes:   0  40   1   1   0  23, Quantity: W-VELOCITY
  21 Nodes:   1   1   0  40   0  23, Quantity: TEMPERATURE
  22 Nodes:   1   1   0  40   0  23, Quantity: U-VELOCITY
  23 Nodes:   1   1   0  40   0  23, Quantity: V-VELOCITY
  24 Nodes:   1   1   0  40   0  23, Quantity: W-VELOCITY
  25 Nodes:  20  20   0  40   0  23, Quantity: TEMPERATURE
  26 Nodes:  20  20   0  40   0  23, Quantity: U-VELOCITY
  27 Nodes:  20  20   0  40   0  23, Quantity: V-VELOCITY
  28 Nodes:  20  20   0  40   0  23, Quantity: W-VELOCITY
  29 Nodes:   0  40  20  20   0  23, Quantity: TEMPERATURE
  30 Nodes:   0  40  20  20   0  23, Quantity: U-VELOCITY
  31 Nodes:   0  40  20  20   0  23, Quantity: V-VELOCITY
  32 Nodes:   0  40  20  20   0  23, Quantity: W-VELOCITY
  33 Nodes:   0  40   0  40  13  13, Quantity: TEMPERATURE
  34 Nodes:   0  40   0  40  13  13, Quantity: U-VELOCITY
  35 Nodes:   0  40   0  40  13  13, Quantity: V-VELOCITY
  36 Nodes:   0  40   0  40  13  13, Quantity: W-VELOCITY
  37 Nodes:   0  40   0  40   3   3, Quantity: TEMPERATURE
  38 Nodes:   0  40   0  40   3   3, Quantity: U-VELOCITY
  39 Nodes:   0  40   0  40   3   3, Quantity: V-VELOCITY
  40 Nodes:   0  40   0  40   3   3, Quantity: W-VELOCITY
  41 Nodes:   0  40   0   0   0  23, Quantity: TEMPERATURE
  42 Nodes:   0  40   0   0   0  23, Quantity: U-VELOCITY
  43 Nodes:   0  40   0   0   0  23, Quantity: V-VELOCITY
  44 Nodes:   0  40   0   0   0  23, Quantity: W-VELOCITY
  45 Nodes:   0   0   0  40   0  23, Quantity: TEMPERATURE
  46 Nodes:   0   0   0  40   0  23, Quantity: U-VELOCITY
  47 Nodes:   0   0   0  40   0  23, Quantity: V-VELOCITY
  48 Nodes:   0   0   0  40   0  23, Quantity: W-VELOCITY
  49 Nodes:  21  21   0  40   0  23, Quantity: VELOCITY
  50 Nodes:   0  40  21  21   0  23, Quantity: VELOCITY
  51 Nodes:   0  40   0  40  14  14, Quantity: VELOCITY
  52 Nodes:   0  40   0  40   4   4, Quantity: VELOCITY
  53 Nodes:   0  40   1   1   0  23, Quantity: VELOCITY
  54 Nodes:   1   1   0  40   0  23, Quantity: VELOCITY
  55 Nodes:  21  21   0  40   0  23, Quantity: WATER VAPOR MASS FRACTION
  56 Nodes:   0  40  21  21   0  23, Quantity: WATER VAPOR MASS FRACTION
  57 Nodes:   0  40   0  40  14  14, Quantity: WATER VAPOR MASS FRACTION
  58 Nodes:   0  40   0  40   4   4, Quantity: WATER VAPOR MASS FRACTION
  59 Nodes:   0  40   1   1   0  23, Quantity: WATER VAPOR MASS FRACTION
  60 Nodes:   1   1   0  40   0  23, Quantity: WATER VAPOR MASS FRACTION


 Boundary File Information

   Sampling Interval (s)             0.800

   1 Quantity: water_droplets AMPUA


 Radiation Model Information

   Number of control angles  104
   Time step increment         3
   Angle increment             5
   Theta band N_phi   Solid angle
     1:        4     0.120
     2:       12     0.114
     3:       16     0.127
     4:       20     0.120
     5:       20     0.120
     6:       16     0.127
     7:       12     0.114
     8:        4     0.120
   Using gray gas absorption.
   Mean beam length  0.100 m
 
 

 Run Time Diagnostics

       Time Step       1   July 27, 2021  16:18:50
       Step Size:    0.521E-01 s, Total Time:       0.05 s
       Pressure Iterations:      1
       Maximum Velocity Error:  0.40E-02 on Mesh   1 at (  39  41   4)
       Maximum Pressure Error:  0.84E-05 on Mesh   7 at (  12  23  23)
       ---------------------------------------------------------------
       Mesh    1
       Max CFL number:  0.45E-01 at (  19,  36,   5)
       Max divergence:  0.45E-06 at (   4,  10,   2)
       Min divergence: -0.79E-03 at (  39,  38,   6)
       Max VN number:   0.25E-01 at (  17,   1,  19)
       Mesh    2
       Max CFL number:  0.45E-01 at (  35,  21,   8)
       Max divergence:  0.66E-06 at (  33,   3,   2)
       Min divergence: -0.81E-03 at (   4,  38,   6)
       Max VN number:   0.27E-01 at (   3,  33,   1)
       Mesh    3
       Max CFL number:  0.44E-01 at (  39,  12,  10)
       Max divergence:  0.45E-06 at (   3,  35,  21)
       Min divergence: -0.80E-03 at (  39,   3,   6)
       Max VN number:   0.21E-01 at (  18,  35,   1)
       Mesh    4
       Max CFL number:  0.45E-01 at (   8,  37,  10)
       Max divergence:  0.50E-06 at (  30,  39,   5)
       Min divergence: -0.78E-03 at (   4,   2,   6)
       Max VN number:   0.32E-01 at (  35,  40,  19)
       Mesh    5
       Max CFL number:  0.44E-01 at (   8,   6,  16)
       Max divergence:  0.10E-05 at (   8,  14,  21)
       Min divergence: -0.42E-05 at (  38,  39,   5)
       Max VN number:   0.34E-01 at (  32,  10,  18)
       Mesh    6
       Max CFL number:  0.46E-01 at (  38,  29,  14)
       Max divergence:  0.11E-05 at (  22,  15,  22)
       Min divergence: -0.41E-05 at (   2,  39,   6)
       Max VN number:   0.32E-01 at (  31,  25,  20)
       Mesh    7
       Max CFL number:  0.43E-01 at (   7,  38,   3)
       Max divergence:  0.12E-05 at (   8,  37,  22)
       Min divergence: -0.42E-05 at (  40,   5,   3)
       Max VN number:   0.34E-01 at (   7,  33,  20)
       Mesh    8
       Max CFL number:  0.44E-01 at (  36,  15,   6)
       Max divergence:  0.96E-06 at (  31,   8,  21)
       Min divergence: -0.39E-05 at (   3,   1,   2)
       Max VN number:   0.33E-01 at (  22,  16,  20)
 
       Time Step       2   July 27, 2021  16:18:51
       Step Size:    0.521E-01 s, Total Time:       0.10 s
       Pressure Iterations:      2
       Maximum Velocity Error:  0.13E-01 on Mesh   1 at (  40  41   6)
       Maximum Pressure Error:  0.16E-02 on Mesh   4 at (   3   4   6)
       ---------------------------------------------------------------
       Mesh    1
       Max CFL number:  0.45E-01 at (  19,  36,   5)
       Max divergence:  0.38E+00 at (  38,  38,   6)
       Min divergence: -0.53E-05 at (  39,  40,  20)
       Max VN number:   0.26E-01 at (  17,   1,  19)
       Mesh    2
       Max CFL number:  0.44E-01 at (  35,  21,   8)
       Max divergence:  0.38E+00 at (   2,  38,   6)
       Min divergence: -0.52E-05 at (   2,  38,  22)
       Max VN number:   0.27E-01 at (   3,  33,   1)
       Mesh    3
       Max CFL number:  0.43E-01 at (  39,  12,  10)
       Max divergence:  0.41E+00 at (  38,   3,   6)
       Min divergence: -0.54E-05 at (  40,   2,  19)
       Max VN number:   0.21E-01 at (  18,  35,   1)
       Mesh    4
       Max CFL number:  0.44E-01 at (   8,  37,  10)
       Max divergence:  0.40E+00 at (   4,   3,   6)
       Min divergence: -0.48E-05 at (   3,   1,  22)
       Max VN number:   0.32E-01 at (  35,  40,  19)
       Mesh    5
       Max CFL number:  0.44E-01 at (   8,   6,  16)
       Max divergence:  0.10E-05 at (   8,  14,  21)
       Min divergence: -0.42E-05 at (  38,  39,   5)
       Max VN number:   0.35E-01 at (  38,   6,  17)
       Mesh    6
       Max CFL number:  0.45E-01 at (  38,  29,  14)
       Max divergence:  0.11E-05 at (  22,  15,  22)
       Min divergence: -0.41E-05 at (   2,  39,   6)
       Max VN number:   0.29E-01 at (  22,  21,  22)
       Mesh    7
       Max CFL number:  0.43E-01 at (   7,  38,   3)
       Max divergence:  0.12E-05 at (   8,  37,  22)
       Min divergence: -0.42E-05 at (  40,   5,   3)
       Max VN number:   0.30E-01 at (  18,  23,  19)
       Mesh    8
       Max CFL number:  0.44E-01 at (  36,  15,   6)
       Max divergence:  0.97E-06 at (  31,   8,  21)
       Min divergence: -0.39E-05 at (   3,   1,   2)
       Max VN number:   0.29E-01 at (  38,  18,  19)
 
       Time Step       3   July 27, 2021  16:18:53
       Step Size:    0.521E-01 s, Total Time:       0.16 s
       Pressure Iterations:      1
       Maximum Velocity Error:  0.14E-01 on Mesh   1 at (  40  41   7)
       Maximum Pressure Error:  0.33E+00 on Mesh   3 at (  38   3   6)
       ---------------------------------------------------------------
       Mesh    1
       Max CFL number:  0.54E-01 at (  40,  38,   6)
       Max divergence:  0.44E+00 at (  37,  38,   6)
       Min divergence: -0.42E-05 at (  39,  40,  20)
       Max VN number:   0.25E-01 at (  17,   1,  19)
       Mesh    2
       Max CFL number:  0.58E-01 at (   4,  39,   6)
       Max divergence:  0.49E+00 at (   4,  38,   6)
       Min divergence: -0.36E-05 at (   2,  38,  22)
       Max VN number:   0.27E-01 at (   3,  33,   1)
       Mesh    3
       Max CFL number:  0.57E-01 at (  38,   4,   6)
       Max divergence:  0.49E+00 at (  37,   4,   6)
       Min divergence: -0.36E-05 at (  39,   6,  22)
       Max VN number:   0.21E-01 at (  18,  35,   1)
       Mesh    4
       Max CFL number:  0.58E-01 at (   4,   1,   6)
       Max divergence:  0.52E+00 at (   4,   3,   6)
       Min divergence: -0.29E-05 at (   1,   3,  20)
       Max VN number:   0.31E-01 at (  35,  40,  19)
       Mesh    5
       Max CFL number:  0.44E-01 at (   8,   6,  16)
       Max divergence:  0.10E-05 at (   8,  14,  21)
       Min divergence: -0.38E-05 at (  38,  39,   5)
       Max VN number:   0.36E-01 at (  38,   6,  17)
       Mesh    6
       Max CFL number:  0.45E-01 at (  38,  29,  14)
       Max divergence:  0.11E-05 at (  22,  15,  22)
       Min divergence: -0.26E-05 at (   2,  39,   6)
       Max VN number:   0.29E-01 at (  22,  21,  22)
       Mesh    7
       Max CFL number:  0.43E-01 at (  33,  39,   4)
       Max divergence:  0.12E-05 at (   8,  37,  22)
       Min divergence: -0.30E-05 at (  40,   5,   3)
       Max VN number:   0.30E-01 at (  18,  23,  19)
       Mesh    8
       Max CFL number:  0.44E-01 at (  36,  15,   6)
       Max divergence:  0.96E-06 at (  31,   8,  21)
       Min divergence: -0.30E-05 at (   3,   1,   2)
       Max VN number:   0.29E-01 at (  38,  18,  19)
 
       Time Step       4   July 27, 2021  16:18:54
       Step Size:    0.521E-01 s, Total Time:       0.21 s
       Pressure Iterations:      5
       Maximum Velocity Error:  0.24E-01 on Mesh   2 at (   1  41   6)
       Maximum Pressure Error:  0.34E+01 on Mesh   4 at (   4   3   6)
       ---------------------------------------------------------------
       Mesh    1
       Max CFL number:  0.61E-01 at (  37,  37,   6)
       Max divergence:  0.17E+01 at (  38,  38,   6)
       Min divergence: -0.42E-05 at (  39,  40,  20)
       Max VN number:   0.25E-01 at (  17,   1,  19)
       Mesh    2
       Max CFL number:  0.63E-01 at (   4,  39,   6)
       Max divergence:  0.17E+01 at (   3,  39,   6)
       Min divergence: -0.36E-05 at (   2,  38,  22)
       Max VN number:   0.27E-01 at (   3,  33,   1)
       Mesh    3
       Max CFL number:  0.68E-01 at (  38,   4,   6)
       Max divergence:  0.18E+01 at (  38,   2,   6)
       Min divergence: -0.36E-05 at (  39,   6,  22)
       Max VN number:   0.20E-01 at (  18,  35,   1)
       Mesh    4
       Max CFL number:  0.65E-01 at (   4,   3,   6)
       Max divergence:  0.18E+01 at (   3,   2,   6)
       Min divergence: -0.29E-05 at (   1,   3,  20)
       Max VN number:   0.31E-01 at (  35,  40,  19)
       Mesh    5
       Max CFL number:  0.43E-01 at (   8,   6,  16)
       Max divergence:  0.10E-05 at (   8,  14,  21)
       Min divergence: -0.38E-05 at (  38,  39,   5)
       Max VN number:   0.36E-01 at (  38,   6,  17)
       Mesh    6
       Max CFL number:  0.45E-01 at (  38,  29,  14)
       Max divergence:  0.11E-05 at (  22,  15,  22)
       Min divergence: -0.26E-05 at (   2,  39,   6)
       Max VN number:   0.29E-01 at (  22,  21,  22)
       Mesh    7
       Max CFL number:  0.42E-01 at (  33,  39,   4)
       Max divergence:  0.12E-05 at (   8,  37,  22)
       Min divergence: -0.30E-05 at (  40,   5,   3)
       Max VN number:   0.29E-01 at (  18,  23,  19)
       Mesh    8
       Max CFL number:  0.43E-01 at (  36,  15,   6)
       Max divergence:  0.97E-06 at (  31,   8,  21)
       Min divergence: -0.30E-05 at (   3,   1,   2)
       Max VN number:   0.29E-01 at (  38,  18,  19)
 
       Time Step       5   July 27, 2021  16:18:56
       Step Size:    0.521E-01 s, Total Time:       0.26 s
       Pressure Iterations:      2
       Maximum Velocity Error:  0.25E-01 on Mesh   3 at (  41   1   6)
       Maximum Pressure Error:  0.93E+01 on Mesh   2 at (   4  38   6)
       ---------------------------------------------------------------
       Mesh    1
       Max CFL number:  0.20E+00 at (  38,  38,   6)
       Max divergence:  0.15E+01 at (  37,  37,   6)
       Min divergence: -0.42E-05 at (  39,  40,  20)
       Max VN number:   0.25E-01 at (  17,   1,  19)
       Mesh    2
       Max CFL number:  0.20E+00 at (   4,  38,   6)
       Max divergence:  0.16E+01 at (   4,  37,   6)
       Min divergence: -0.36E-05 at (   2,  38,  22)
       Max VN number:   0.26E-01 at (   3,  33,   1)
       Mesh    3
       Max CFL number:  0.20E+00 at (  38,   3,   6)
       Max divergence:  0.15E+01 at (  37,   4,   6)
       Min divergence: -0.36E-05 at (  39,   6,  22)
       Max VN number:   0.25E-01 at (  38,   5,   6)
       Mesh    4
       Max CFL number:  0.19E+00 at (   4,   4,   6)
       Max divergence:  0.15E+01 at (   4,   4,   6)
       Min divergence: -0.29E-05 at (   1,   3,  20)
       Max VN number:   0.31E-01 at (  35,  40,  19)
       Mesh    5
       Max CFL number:  0.43E-01 at (   8,   6,  16)
       Max divergence:  0.10E-05 at (   8,  14,  21)
       Min divergence: -0.38E-05 at (  38,  39,   5)
       Max VN number:   0.36E-01 at (  38,   6,  17)
       Mesh    6
       Max CFL number:  0.45E-01 at (  38,  29,  14)
       Max divergence:  0.11E-05 at (  22,  15,  22)
       Min divergence: -0.25E-05 at (   2,  39,   6)
       Max VN number:   0.29E-01 at (  22,  21,  22)
       Mesh    7
       Max CFL number:  0.42E-01 at (  33,  39,   4)
       Max divergence:  0.12E-05 at (   8,  37,  22)
       Min divergence: -0.30E-05 at (  40,   5,   3)
       Max VN number:   0.29E-01 at (  18,  23,  19)
       Mesh    8
       Max CFL number:  0.43E-01 at (  36,  15,   6)
       Max divergence:  0.98E-06 at (  31,   8,  21)
       Min divergence: -0.30E-05 at (   3,   1,   2)
       Max VN number:   0.29E-01 at (  38,  18,  19)
 
       Time Step       6   July 27, 2021  16:18:57
       Step Size:    0.521E-01 s, Total Time:       0.31 s
       Pressure Iterations:      9
       Maximum Velocity Error:  0.25E-01 on Mesh   1 at (  41  40   6)
       Maximum Pressure Error:  0.19E+02 on Mesh   3 at (  37   2   6)
       ---------------------------------------------------------------
       Mesh    1
       Max CFL number:  0.19E+00 at (  37,  37,   6)
       Max divergence:  0.47E+01 at (  37,  40,   6)
       Min divergence: -0.23E-05 at (  40,  40,  22)
       Max VN number:   0.35E-01 at (  36,  40,   5)
       Mesh    2
       Max CFL number:  0.20E+00 at (   4,  37,   6)
       Max divergence:  0.45E+01 at (   2,  40,   6)
       Min divergence: -0.27E-05 at (  10,  38,  22)
       Max VN number:   0.36E-01 at (   2,  36,   5)
       Mesh    3
       Max CFL number:  0.19E+00 at (  38,   4,   6)
       Max divergence:  0.52E+01 at (  37,   1,   6)
       Min divergence: -0.21E-05 at (  40,   5,  21)
       Max VN number:   0.32E-01 at (  36,   3,   5)
       Mesh    4
       Max CFL number:  0.19E+00 at (   4,   4,   6)
       Max divergence:  0.44E+01 at (   3,   1,   6)
       Min divergence: -0.20E-05 at (   4,  27,  21)
       Max VN number:   0.31E-01 at (  35,  40,  19)
       Mesh    5
       Max CFL number:  0.43E-01 at (   8,   6,  16)
       Max divergence:  0.10E-05 at (   8,  14,  21)
       Min divergence: -0.27E-05 at (  38,  39,   5)
       Max VN number:   0.36E-01 at (  38,   6,  17)
       Mesh    6
       Max CFL number:  0.44E-01 at (  38,  29,  14)
       Max divergence:  0.11E-05 at (  22,  15,  22)
       Min divergence: -0.22E-05 at (  12,  38,   2)
       Max VN number:   0.29E-01 at (  22,  21,  22)
       Mesh    7
       Max CFL number:  0.42E-01 at (  33,  39,   4)
       Max divergence:  0.12E-05 at (   8,  37,  22)
       Min divergence: -0.21E-05 at (  40,   5,   3)
       Max VN number:   0.29E-01 at (  18,  23,  19)
       Mesh    8
       Max CFL number:  0.43E-01 at (  36,  15,   6)
       Max divergence:  0.98E-06 at (  31,   8,  21)
       Min divergence: -0.25E-05 at (   3,   3,   8)
       Max VN number:   0.29E-01 at (  38,  18,  19)
 
       Time Step       7   July 27, 2021  16:18:59
       Step Size:    0.521E-01 s, Total Time:       0.36 s
       Pressure Iterations:     10
       Maximum Velocity Error:  0.25E-01 on Mesh   1 at (  40  41   6)
       Maximum Pressure Error:  0.45E+02 on Mesh   3 at (  37   1   6)
       ---------------------------------------------------------------
       Mesh    1
       Max CFL number:  0.55E+00 at (  37,  40,   6)
       Max divergence:  0.21E+01 at (  38,  38,   6)
       Min divergence: -0.22E-05 at (  40,  40,  22)
       Max VN number:   0.61E-01 at (  38,  40,   6)
       Mesh    2
       Max CFL number:  0.49E+00 at (   4,  40,   6)
       Max divergence:  0.21E+01 at (   3,  38,   6)
       Min divergence: -0.25E-05 at (  10,  38,  22)
       Max VN number:   0.61E-01 at (   2,  40,   6)
       Mesh    3
       Max CFL number:  0.57E+00 at (  37,   1,   6)
       Max divergence:  0.21E+01 at (  38,   4,   6)
       Min divergence: -0.19E-05 at (  40,   5,  21)
       Max VN number:   0.61E-01 at (  38,   1,   6)
       Mesh    4
       Max CFL number:  0.51E+00 at (   1,   4,   6)
       Max divergence:  0.21E+01 at (   3,   3,   6)
       Min divergence: -0.20E-05 at (   4,  27,  21)
       Max VN number:   0.61E-01 at (   2,   1,   6)
       Mesh    5
       Max CFL number:  0.42E-01 at (   8,   6,  16)
       Max divergence:  0.10E-05 at (   8,  14,  21)
       Min divergence: -0.27E-05 at (  38,  39,   5)
       Max VN number:   0.36E-01 at (  38,   6,  17)
       Mesh    6
       Max CFL number:  0.44E-01 at (  38,  29,  14)
       Max divergence:  0.11E-05 at (  22,  15,  22)
       Min divergence: -0.22E-05 at (  12,  38,   2)
       Max VN number:   0.29E-01 at (  22,  21,  22)
       Mesh    7
       Max CFL number:  0.42E-01 at (  33,  39,   4)
       Max divergence:  0.12E-05 at (   8,  37,  22)
       Min divergence: -0.21E-05 at (  40,   5,   3)
       Max VN number:   0.29E-01 at (  18,  23,  19)
       Mesh    8
       Max CFL number:  0.42E-01 at (  36,  15,   6)
       Max divergence:  0.98E-06 at (  31,   8,  21)
       Min divergence: -0.25E-05 at (   3,   3,   8)
       Max VN number:   0.29E-01 at (  38,  18,  19)
 
       Time Step       8   July 27, 2021  16:19:01
       Step Size:    0.521E-01 s, Total Time:       0.42 s
       Pressure Iterations:      4
       Maximum Velocity Error:  0.23E-01 on Mesh   1 at (  41  40   6)
       Maximum Pressure Error:  0.12E+02 on Mesh   3 at (  39   2   6)
       ---------------------------------------------------------------
       Mesh    1
       Max CFL number:  0.32E+00 at (  37,  37,   7)
       Max divergence:  0.36E+01 at (  40,  40,   6)
       Min divergence: -0.20E-05 at (  21,  23,  19)
       Max VN number:   0.57E-01 at (  36,  40,   5)
       Mesh    2
       Max CFL number:  0.31E+00 at (   2,  37,   6)
       Max divergence:  0.36E+01 at (   1,  40,   6)
       Min divergence: -0.24E-05 at (  10,  38,  22)
       Max VN number:   0.60E-01 at (   2,  36,   5)
       Mesh    3
       Max CFL number:  0.31E+00 at (  38,   4,   6)
       Max divergence:  0.36E+01 at (  40,   1,   6)
       Min divergence: -0.19E-05 at (   9,   2,  20)
       Max VN number:   0.47E-01 at (  36,   3,   5)
       Mesh    4
       Max CFL number:  0.31E+00 at (   4,   4,   7)
       Max divergence:  0.36E+01 at (   1,   1,   6)
       Min divergence: -0.19E-05 at (   4,  27,  21)
       Max VN number:   0.48E-01 at (   2,   5,   5)
       Mesh    5
       Max CFL number:  0.42E-01 at (   8,   6,  16)
       Max divergence:  0.10E-05 at (   8,  14,  21)
       Min divergence: -0.26E-05 at (  38,  39,   5)
       Max VN number:   0.35E-01 at (  38,   6,  17)
       Mesh    6
       Max CFL number:  0.43E-01 at (  38,  29,  14)
       Max divergence:  0.11E-05 at (  22,  15,  22)
       Min divergence: -0.21E-05 at (  12,  38,   2)
       Max VN number:   0.29E-01 at (  22,  21,  22)
       Mesh    7
       Max CFL number:  0.42E-01 at (  33,  39,   4)
       Max divergence:  0.12E-05 at (   8,  37,  22)
       Min divergence: -0.20E-05 at (  40,   5,   3)
       Max VN number:   0.29E-01 at (  15,  21,  21)
       Mesh    8
       Max CFL number:  0.42E-01 at (  36,  15,   6)
       Max divergence:  0.99E-06 at (  31,   8,  21)
       Min divergence: -0.24E-05 at (   3,   3,   8)
       Max VN number:   0.29E-01 at (  38,  18,  19)
 
       Time Step       9   July 27, 2021  16:19:04
       Step Size:    0.521E-01 s, Total Time:       0.47 s
       Pressure Iterations:      5
       Maximum Velocity Error:  0.21E-01 on Mesh   1 at (  40  41   6)
       Maximum Pressure Error:  0.20E+02 on Mesh   1 at (  39  37   6)
       ---------------------------------------------------------------
       Mesh    1
       Max CFL number:  0.45E+00 at (  37,  37,   7)
       Max divergence:  0.23E+01 at (  37,  37,   6)
       Min divergence: -0.13E-05 at (  24,   8,  10)
       Max VN number:   0.71E-01 at (  37,  37,   7)
       Mesh    2
       Max CFL number:  0.42E+00 at (   4,  37,   7)
       Max divergence:  0.22E+01 at (   4,  37,   6)
       Min divergence: -0.16E-05 at (  10,  22,  21)
       Max VN number:   0.71E-01 at (   4,  37,   7)
       Mesh    3
       Max CFL number:  0.42E+00 at (  37,   4,   7)
       Max divergence:  0.23E+01 at (  37,   4,   6)
       Min divergence: -0.15E-05 at (   9,   2,  20)
       Max VN number:   0.68E-01 at (  37,   4,   7)
       Mesh    4
       Max CFL number:  0.44E+00 at (   4,   4,   7)
       Max divergence:  0.22E+01 at (   4,   4,   6)
       Min divergence: -0.14E-05 at (  27,  24,  11)
       Max VN number:   0.73E-01 at (   4,   4,   7)
       Mesh    5
       Max CFL number:  0.42E-01 at (   8,   6,  16)
       Max divergence:  0.10E-05 at (   8,  14,  21)
       Min divergence: -0.18E-05 at (  38,  39,   5)
       Max VN number:   0.35E-01 at (  38,   6,  17)
       Mesh    6
       Max CFL number:  0.43E-01 at (  14,  33,   2)
       Max divergence:  0.11E-05 at (  22,  15,  22)
       Min divergence: -0.17E-05 at (   3,  38,  16)
       Max VN number:   0.28E-01 at (  22,  21,  22)
       Mesh    7
       Max CFL number:  0.42E-01 at (  33,  39,   4)
       Max divergence:  0.12E-05 at (   8,  37,  22)
       Min divergence: -0.17E-05 at (  39,  19,  19)
       Max VN number:   0.29E-01 at (  15,  21,  21)
       Mesh    8
       Max CFL number:  0.41E-01 at (  36,  15,   6)
       Max divergence:  0.99E-06 at (  31,   8,  21)
       Min divergence: -0.18E-05 at (   3,   3,   8)
       Max VN number:   0.29E-01 at (  38,  18,  19)
 
       Time Step      10   July 27, 2021  16:19:06
       Step Size:    0.521E-01 s, Total Time:       0.52 s
       Pressure Iterations:      2
       Maximum Velocity Error:  0.23E-01 on Mesh   2 at (   1  41   6)
       Maximum Pressure Error:  0.83E+01 on Mesh   3 at (  39   2   6)
       ---------------------------------------------------------------
       Mesh    1
       Max CFL number:  0.65E+00 at (  37,  37,   6)
       Max divergence:  0.35E+01 at (  40,  40,   6)
       Min divergence: -0.13E-05 at (  24,   8,  10)
       Max VN number:   0.11E+00 at (  37,  37,   7)
       Mesh    2
       Max CFL number:  0.64E+00 at (   4,  37,   6)
       Max divergence:  0.34E+01 at (   1,  40,   6)
       Min divergence: -0.16E-05 at (  10,  22,  21)
       Max VN number:   0.11E+00 at (   4,  37,   7)
       Mesh    3
       Max CFL number:  0.64E+00 at (  37,   4,   6)
       Max divergence:  0.35E+01 at (  40,   1,   6)
       Min divergence: -0.15E-05 at (   9,   2,  20)
       Max VN number:   0.10E+00 at (  37,   4,   7)
       Mesh    4
       Max CFL number:  0.67E+00 at (   4,   4,   6)
       Max divergence:  0.35E+01 at (   1,   1,   6)
       Min divergence: -0.14E-05 at (  27,  24,  11)
       Max VN number:   0.11E+00 at (   4,   4,   7)
       Mesh    5
       Max CFL number:  0.42E-01 at (   8,   6,  16)
       Max divergence:  0.11E-05 at (   8,  14,  21)
       Min divergence: -0.18E-05 at (  38,  39,   5)
       Max VN number:   0.35E-01 at (  38,   6,  17)
       Mesh    6
       Max CFL number:  0.44E-01 at (  14,  33,   2)
       Max divergence:  0.11E-05 at (  22,  15,  22)
       Min divergence: -0.16E-05 at (  24,  38,  11)
       Max VN number:   0.28E-01 at (  22,  21,  22)
       Mesh    7
       Max CFL number:  0.42E-01 at (  33,  39,   4)
       Max divergence:  0.12E-05 at (   8,  37,  22)
       Min divergence: -0.16E-05 at (  39,  19,  19)
       Max VN number:   0.29E-01 at (  15,  21,  21)
       Mesh    8
       Max CFL number:  0.41E-01 at (   2,  13,   8)
       Max divergence:  0.10E-05 at (  31,   8,  21)
       Min divergence: -0.18E-05 at (   3,   3,   8)
       Max VN number:   0.28E-01 at (  38,  18,  19)
 
       Time Step      20   July 27, 2021  16:19:24
       Step Size:    0.212E-01 s, Total Time:       0.83 s
       Pressure Iterations:      2
       Maximum Velocity Error:  0.12E-01 on Mesh   1 at (  38  41   8)
       Maximum Pressure Error:  0.28E+02 on Mesh   4 at (   3   3   9)
       ---------------------------------------------------------------
       Mesh    1
       Max CFL number:  0.93E+00 at (  38,  39,   6)
       Max divergence:  0.52E+01 at (  38,  39,   6)
       Min divergence: -0.14E+00 at (  39,  40,   7)
       Max VN number:   0.12E+00 at (  38,  38,   8)
       Mesh    2
       Max CFL number:  0.93E+00 at (   3,  38,   6)
       Max divergence:  0.51E+01 at (   3,  39,   6)
       Min divergence: -0.15E+00 at (   2,  40,   7)
       Max VN number:   0.12E+00 at (   4,  38,   8)
       Mesh    3
       Max CFL number:  0.93E+00 at (  38,   2,   6)
       Max divergence:  0.52E+01 at (  38,   1,   6)
       Min divergence: -0.25E+00 at (  39,   1,   7)
       Max VN number:   0.13E+00 at (  40,   4,   8)
       Mesh    4
       Max CFL number:  0.92E+00 at (   3,   2,   6)
       Max divergence:  0.52E+01 at (   3,   1,   6)
       Min divergence: -0.21E+00 at (   1,   2,   7)
       Max VN number:   0.13E+00 at (   3,   3,   8)
       Mesh    5
       Max CFL number:  0.17E-01 at (  33,  35,   5)
       Max divergence:  0.21E-05 at (  37,  37,   2)
       Min divergence: -0.14E-05 at (  39,   8,  12)
       Max VN number:   0.14E-01 at (  38,   6,  17)
       Mesh    6
       Max CFL number:  0.19E-01 at (  14,  33,   2)
       Max divergence:  0.23E-05 at (   4,  38,   2)
       Min divergence: -0.13E-05 at (  14,  17,   4)
       Max VN number:   0.11E-01 at (  22,  21,  22)
       Mesh    7
       Max CFL number:  0.17E-01 at (  32,  35,   2)
       Max divergence:  0.18E-05 at (  32,   7,   2)
       Min divergence: -0.14E-05 at (  39,  19,  19)
       Max VN number:   0.12E-01 at (  15,  21,  21)
       Mesh    8
       Max CFL number:  0.17E-01 at (   6,   4,   3)
       Max divergence:  0.20E-05 at (   5,   1,   2)
       Min divergence: -0.13E-05 at (   3,  15,  15)
       Max VN number:   0.11E-01 at (  38,  18,  19)
 
       Time Step      30   July 27, 2021  16:19:42
       Step Size:    0.136E-01 s, Total Time:       0.99 s
       Pressure Iterations:      2
       Maximum Velocity Error:  0.25E-01 on Mesh   1 at (  41  38   7)
       Maximum Pressure Error:  0.77E+02 on Mesh   4 at (   2   2  10)
       ---------------------------------------------------------------
       Mesh    1
       Max CFL number:  0.90E+00 at (  39,  40,   8)
       Max divergence:  0.62E+01 at (  39,  40,   6)
       Min divergence: -0.77E+00 at (  39,  39,  10)
       Max VN number:   0.19E+00 at (  37,  40,   6)
       Mesh    2
       Max CFL number:  0.89E+00 at (   2,  39,   7)
       Max divergence:  0.56E+01 at (   1,  39,   6)
       Min divergence: -0.50E+00 at (   1,  39,   9)
       Max VN number:   0.18E+00 at (   1,  40,   8)
       Mesh    3
       Max CFL number:  0.88E+00 at (  39,   2,   7)
       Max divergence:  0.61E+01 at (  40,   2,   6)
       Min divergence: -0.92E+00 at (  40,   4,  11)
       Max VN number:   0.21E+00 at (  40,   4,   6)
       Mesh    4
       Max CFL number:  0.82E+00 at (   2,   2,   7)
       Max divergence:  0.61E+01 at (   1,   2,   6)
       Min divergence: -0.17E+01 at (   1,   2,  10)
       Max VN number:   0.17E+00 at (   1,   1,   8)
       Mesh    5
       Max CFL number:  0.14E-01 at (  37,  36,   3)
       Max divergence:  0.51E-04 at (  36,  40,   1)
       Min divergence: -0.11E-05 at (  39,   8,  12)
       Max VN number:   0.90E-02 at (  38,   6,  17)
       Mesh    6
       Max CFL number:  0.15E-01 at (   7,  33,   1)
       Max divergence:  0.55E-04 at (   5,  40,   1)
       Min divergence: -0.11E-05 at (   3,  15,  22)
       Max VN number:   0.72E-02 at (  22,  21,  22)
       Mesh    7
       Max CFL number:  0.15E-01 at (  39,   6,   1)
       Max divergence:  0.60E-04 at (  36,   5,   1)
       Min divergence: -0.12E-05 at (  13,   3,  22)
       Max VN number:   0.78E-02 at (  15,  21,  21)
       Mesh    8
       Max CFL number:  0.15E-01 at (   6,   4,   3)
       Max divergence:  0.70E-04 at (   5,   5,   1)
       Min divergence: -0.12E-05 at (  19,  24,  22)
       Max VN number:   0.71E-02 at (  38,  18,  19)
 
       Time Step      40   July 27, 2021  16:19:58
       Step Size:    0.117E-01 s, Total Time:       1.12 s
       Pressure Iterations:      3
       Maximum Velocity Error:  0.17E-01 on Mesh   1 at (  39  41  10)
       Maximum Pressure Error:  0.77E+02 on Mesh   4 at (   2   2  13)
       ---------------------------------------------------------------
       Mesh    1
       Max CFL number:  0.94E+00 at (  39,  40,   8)
       Max divergence:  0.53E+01 at (  38,  39,   6)
       Min divergence: -0.16E+01 at (  39,  39,  12)
       Max VN number:   0.19E+00 at (  40,  40,  10)
       Mesh    2
       Max CFL number:  0.96E+00 at (   2,  40,  10)
       Max divergence:  0.53E+01 at (   2,  38,   6)
       Min divergence: -0.12E+01 at (   2,  39,  12)
       Max VN number:   0.18E+00 at (   1,  40,  10)
       Mesh    3
       Max CFL number:  0.90E+00 at (  40,   2,  10)
       Max divergence:  0.53E+01 at (  38,   2,   6)
       Min divergence: -0.17E+01 at (  39,   2,  12)
       Max VN number:   0.18E+00 at (  40,   2,   9)
       Mesh    4
       Max CFL number:  0.93E+00 at (   3,   1,  11)
       Max divergence:  0.53E+01 at (   3,   2,   6)
       Min divergence: -0.17E+01 at (   2,   2,  13)
       Max VN number:   0.18E+00 at (   2,   2,  12)
       Mesh    5
       Max CFL number:  0.17E-01 at (  38,  37,   1)
       Max divergence:  0.11E-03 at (  40,  40,   1)
       Min divergence: -0.11E-05 at (   6,  20,  22)
       Max VN number:   0.76E-02 at (  38,   6,  17)
       Mesh    6
       Max CFL number:  0.17E-01 at (   3,  37,   1)
       Max divergence:  0.71E-04 at (   4,  37,   1)
       Min divergence: -0.11E-05 at (   3,  15,  22)
       Max VN number:   0.62E-02 at (  22,  21,  22)
       Mesh    7
       Max CFL number:  0.17E-01 at (  36,   3,   1)
       Max divergence:  0.13E-03 at (  40,   5,   1)
       Min divergence: -0.12E-05 at (  13,   3,  22)
       Max VN number:   0.67E-02 at (  15,  21,  21)
       Mesh    8
       Max CFL number:  0.16E-01 at (   2,   3,   1)
       Max divergence:  0.95E-04 at (   1,   1,   1)
       Min divergence: -0.12E-05 at (  19,  24,  22)
       Max VN number:   0.60E-02 at (  38,  18,  19)
 
       Time Step      50   July 27, 2021  16:20:20
       Step Size:    0.103E-01 s, Total Time:       1.23 s
       Pressure Iterations:      3
       Maximum Velocity Error:  0.14E-01 on Mesh   2 at (   2  41  10)
       Maximum Pressure Error:  0.48E+02 on Mesh   2 at (   2  39   8)
       ---------------------------------------------------------------
       Mesh    1
       Max CFL number:  0.74E+00 at (  39,  40,  11)
       Max divergence:  0.55E+01 at (  40,  38,   6)
       Min divergence: -0.10E+01 at (  40,  35,  14)
       Max VN number:   0.16E+00 at (  40,  40,  11)
       Mesh    2
       Max CFL number:  0.79E+00 at (   2,  40,  11)
       Max divergence:  0.55E+01 at (   1,  38,   6)
       Min divergence: -0.80E+00 at (   2,  39,  15)
       Max VN number:   0.14E+00 at (   2,  40,   9)
       Mesh    3
       Max CFL number:  0.80E+00 at (  40,   3,  12)
       Max divergence:  0.55E+01 at (  40,   3,   6)
       Min divergence: -0.12E+01 at (  39,   2,  14)
       Max VN number:   0.15E+00 at (  39,   2,  14)
       Mesh    4
       Max CFL number:  0.84E+00 at (   3,   1,  13)
       Max divergence:  0.55E+01 at (   1,   3,   6)
       Min divergence: -0.11E+01 at (   2,   1,  12)
       Max VN number:   0.16E+00 at (   1,   1,  12)
       Mesh    5
       Max CFL number:  0.23E-01 at (  38,  37,   1)
       Max divergence:  0.15E-03 at (  40,  40,   1)
       Min divergence: -0.11E-05 at (   6,  20,  22)
       Max VN number:   0.67E-02 at (  38,   6,  17)
       Mesh    6
       Max CFL number:  0.24E-01 at (   3,  37,   1)
       Max divergence:  0.16E-03 at (   4,  40,   1)
       Min divergence: -0.11E-05 at (   3,  15,  22)
       Max VN number:   0.54E-02 at (  22,  21,  22)
       Mesh    7
       Max CFL number:  0.23E-01 at (  36,   3,   1)
       Max divergence:  0.15E-03 at (  40,   4,   1)
       Min divergence: -0.12E-05 at (  13,   3,  22)
       Max VN number:   0.59E-02 at (  15,  21,  21)
       Mesh    8
       Max CFL number:  0.23E-01 at (   2,   3,   1)
       Max divergence:  0.16E-03 at (   4,   1,   1)
       Min divergence: -0.12E-05 at (  19,  24,  22)
       Max VN number:   0.53E-02 at (  11,  30,  18)
 
       Time Step      60   July 27, 2021  16:20:40
       Step Size:    0.103E-01 s, Total Time:       1.33 s
       Pressure Iterations:      3
       Maximum Velocity Error:  0.16E-01 on Mesh   3 at (  41   2   9)
       Maximum Pressure Error:  0.90E+02 on Mesh   4 at (   2   2   9)
       ---------------------------------------------------------------
       Mesh    1
       Max CFL number:  0.78E+00 at (  39,  39,  13)
       Max divergence:  0.57E+01 at (  40,  38,   6)
       Min divergence: -0.12E+01 at (  39,  39,  11)
       Max VN number:   0.17E+00 at (  39,  40,  14)
       Mesh    2
       Max CFL number:  0.90E+00 at (   1,  40,  12)
       Max divergence:  0.55E+01 at (   3,  40,   6)
       Min divergence: -0.12E+01 at (   2,  39,  11)
       Max VN number:   0.14E+00 at (   2,  39,  10)
       Mesh    3
       Max CFL number:  0.72E+00 at (  40,   3,  14)
       Max divergence:  0.56E+01 at (  39,   3,   6)
       Min divergence: -0.11E+01 at (  39,   2,  12)
       Max VN number:   0.15E+00 at (  39,   2,  12)
       Mesh    4
       Max CFL number:  0.89E+00 at (   1,   1,  12)
       Max divergence:  0.56E+01 at (   1,   3,   6)
       Min divergence: -0.13E+01 at (   2,   2,  11)
       Max VN number:   0.16E+00 at (   1,   1,  13)
       Mesh    5
       Max CFL number:  0.37E-01 at (  38,  37,   1)
       Max divergence:  0.19E-03 at (  38,  37,   1)
       Min divergence: -0.11E-05 at (   6,  20,  22)
       Max VN number:   0.67E-02 at (  38,   6,  17)
[...]
       Mesh    6
       Max CFL number:  0.84E+00 at (  21,  21,  12)
       Max divergence:  0.77E+00 at (   4,  38,  10)
       Min divergence: -0.28E+01 at (   1,  38,  10)
       Max VN number:   0.32E+00 at (   1,  40,  12)
       No. of Lagrangian Particles:         17898
       Mesh    7
       Max CFL number:  0.93E+00 at (  19,  21,  12)
       Max divergence:  0.49E+00 at (  39,   2,   3)
       Min divergence: -0.27E+01 at (  39,   2,   2)
       Max VN number:   0.24E+00 at (  19,  21,  12)
       No. of Lagrangian Particles:         19666
       Mesh    8
       Max CFL number:  0.92E+00 at (  21,  19,  13)
       Max divergence:  0.50E+00 at (   4,   1,   9)
       Min divergence: -0.28E+01 at (   1,   2,   1)
       Max VN number:   0.23E+00 at (  21,  20,  11)
       No. of Lagrangian Particles:         18380
 
       Time Step  104200   July 31, 2021  21:48:27
       Step Size:    0.341E-02 s, Total Time:     397.95 s
       Pressure Iterations:      5
       Maximum Velocity Error:  0.23E-01 on Mesh   1 at (  40  41   6)
       Maximum Pressure Error:  0.69E+03 on Mesh   1 at (  40  40   6)
       ---------------------------------------------------------------
       Mesh    1
       Max CFL number:  0.30E+00 at (  40,  39,  21)
       Max divergence:  0.14E+02 at (  40,  40,   6)
       Min divergence: -0.45E+01 at (  40,  40,  11)
       Max VN number:   0.14E+00 at (  40,  17,   1)
       No. of Lagrangian Particles:         27641
       Mesh    2
       Max CFL number:  0.44E+00 at (   2,  38,  17)
       Max divergence:  0.57E+01 at (   3,  38,   6)
       Min divergence: -0.49E+01 at (   1,  40,  23)
       Max VN number:   0.12E+00 at (  38,  32,   1)
       No. of Lagrangian Particles:         28585
       Mesh    3
       Max CFL number:  0.33E+00 at (  16,  25,  21)
       Max divergence:  0.81E+01 at (  39,   3,   6)
       Min divergence: -0.33E+01 at (  40,   1,  12)
       Max VN number:   0.17E+00 at (   2,  23,   1)
       No. of Lagrangian Particles:         31068
       Mesh    4
       Max CFL number:  0.40E+00 at (  24,  17,  22)
       Max divergence:  0.72E+01 at (   2,   4,   6)
       Min divergence: -0.39E+01 at (   3,   1,  21)
       Max VN number:   0.13E+00 at (  11,  36,   1)
       No. of Lagrangian Particles:         29785
       Mesh    5
       Max CFL number:  0.76E+00 at (  21,  20,  13)
       Max divergence:  0.97E+00 at (  38,  39,   9)
       Min divergence: -0.20E+01 at (  37,  38,   8)
       Max VN number:   0.23E+00 at (  40,  40,  12)
       No. of Lagrangian Particles:         17809
       Mesh    6
       Max CFL number:  0.87E+00 at (   1,  40,  13)
       Max divergence:  0.91E+00 at (   2,  38,  10)
       Min divergence: -0.19E+01 at (   4,  39,   8)
       Max VN number:   0.26E+00 at (  20,  22,  12)
       No. of Lagrangian Particles:         18153
       Mesh    7
       Max CFL number:  0.76E+00 at (  39,   1,  12)
       Max divergence:  0.75E+00 at (  39,   2,  10)
       Min divergence: -0.27E+01 at (  38,   5,   9)
       Max VN number:   0.20E+00 at (  39,   2,  12)
       No. of Lagrangian Particles:         19529
       Mesh    8
       Max CFL number:  0.83E+00 at (  21,  19,  12)
       Max divergence:  0.44E+00 at (   2,   3,  10)
       Min divergence: -0.20E+01 at (   2,   1,  12)
       Max VN number:   0.15E+00 at (  22,  19,  12)
       No. of Lagrangian Particles:         18415
 
       Time Step  104300   July 31, 2021  21:53:57
       Step Size:    0.385E-02 s, Total Time:     398.30 s
       Pressure Iterations:      5
       Maximum Velocity Error:  0.14E-01 on Mesh   5 at (  41  39  13)
       Maximum Pressure Error:  0.70E+03 on Mesh   2 at (   3  38   6)
       ---------------------------------------------------------------
       Mesh    1
       Max CFL number:  0.33E+00 at (  24,  17,  18)
       Max divergence:  0.64E+01 at (  39,  38,   6)
       Min divergence: -0.27E+01 at (  39,  39,   8)
       Max VN number:   0.14E+00 at (   1,  40,   1)
       No. of Lagrangian Particles:         28030
       Mesh    2
       Max CFL number:  0.39E+00 at (   2,  38,  23)
       Max divergence:  0.52E+01 at (   3,  38,   6)
       Min divergence: -0.90E+01 at (   2,  40,  16)
       Max VN number:   0.11E+00 at (  23,  34,   1)
       No. of Lagrangian Particles:         28656
       Mesh    3
       Max CFL number:  0.34E+00 at (  26,  27,  23)
       Max divergence:  0.56E+01 at (  38,   3,   6)
       Min divergence: -0.64E+01 at (  40,   2,  13)
       Max VN number:   0.20E+00 at (   3,   4,   1)
       No. of Lagrangian Particles:         30997
       Mesh    4
       Max CFL number:  0.44E+00 at (   3,   1,  14)
       Max divergence:  0.62E+01 at (   2,   1,   6)
       Min divergence: -0.97E+01 at (   3,   1,  14)
       Max VN number:   0.12E+00 at (   1,  26,   1)
       No. of Lagrangian Particles:         29815
       Mesh    5
       Max CFL number:  0.79E+00 at (  20,  20,  13)
       Max divergence:  0.53E+00 at (  39,  34,  10)
       Min divergence: -0.21E+01 at (  40,  35,  10)
       Max VN number:   0.21E+00 at (  22,  20,  13)
       No. of Lagrangian Particles:         17666
       Mesh    6
       Max CFL number:  0.79E+00 at (  20,  22,  13)
       Max divergence:  0.11E+01 at (   5,  37,   8)
       Min divergence: -0.44E+01 at (   2,  36,   9)
       Max VN number:   0.24E+00 at (   2,  40,  11)
       No. of Lagrangian Particles:         18233
       Mesh    7
       Max CFL number:  0.80E+00 at (  20,  21,  13)
       Max divergence:  0.85E+00 at (  39,   1,   9)
       Min divergence: -0.14E+01 at (  40,   2,  12)
       Max VN number:   0.23E+00 at (  40,   1,  12)
       No. of Lagrangian Particles:         19408
       Mesh    8
       Max CFL number:  0.84E+00 at (   1,   1,  13)
       Max divergence:  0.41E+00 at (  13,   2,   6)
       Min divergence: -0.26E+01 at (   4,   2,  11)
       Max VN number:   0.22E+00 at (  19,  20,  12)
       No. of Lagrangian Particles:         18520
 
       Time Step  104400   July 31, 2021  22:00:13
       Step Size:    0.355E-02 s, Total Time:     398.65 s
       Pressure Iterations:      5
       Maximum Velocity Error:  0.18E-01 on Mesh   5 at (  41  39  13)
       Maximum Pressure Error:  0.40E+03 on Mesh   3 at (  39   1   6)
       ---------------------------------------------------------------
       Mesh    1
       Max CFL number:  0.33E+00 at (  18,  16,  22)
       Max divergence:  0.60E+01 at (  40,  38,   6)
       Min divergence: -0.57E+01 at (  40,  40,  12)
       Max VN number:   0.10E+00 at (  37,   6,   1)
       No. of Lagrangian Particles:         28046
       Mesh    2
       Max CFL number:  0.31E+00 at (  22,  16,  23)
       Max divergence:  0.56E+01 at (   1,  38,   6)
       Min divergence: -0.50E+01 at (   1,  40,  12)
       Max VN number:   0.12E+00 at (  31,  33,   1)
       No. of Lagrangian Particles:         28728
       Mesh    3
       Max CFL number:  0.38E+00 at (  40,   1,  13)
       Max divergence:  0.55E+01 at (  38,   4,   6)
       Min divergence: -0.58E+01 at (  39,   1,  17)
       Max VN number:   0.23E+00 at (   2,   2,   1)
       No. of Lagrangian Particles:         30995
       Mesh    4
       Max CFL number:  0.40E+00 at (   1,   3,  22)
       Max divergence:  0.68E+01 at (   2,   2,   6)
       Min divergence: -0.57E+01 at (   1,   2,  18)
       Max VN number:   0.22E+00 at (  39,  30,   1)
       No. of Lagrangian Particles:         29832
       Mesh    5
       Max CFL number:  0.73E+00 at (  21,  20,  13)
       Max divergence:  0.38E+00 at (  22,  20,  13)
       Min divergence: -0.19E+01 at (  22,  20,  12)
       Max VN number:   0.29E+00 at (  40,  40,  12)
       No. of Lagrangian Particles:         17732
       Mesh    6
       Max CFL number:  0.73E+00 at (  20,  20,  12)
       Max divergence:  0.55E+00 at (   2,  40,  13)
       Min divergence: -0.29E+01 at (   3,  40,  12)
       Max VN number:   0.24E+00 at (   1,  40,  12)
       No. of Lagrangian Particles:         18352
       Mesh    7
       Max CFL number:  0.69E+00 at (  40,   2,  13)
       Max divergence:  0.33E+00 at (  40,   3,   3)
       Min divergence: -0.28E+01 at (  40,   5,   1)
       Max VN number:   0.18E+00 at (  40,   2,  12)
       No. of Lagrangian Particles:         19198
       Mesh    8
       Max CFL number:  0.75E+00 at (   1,   1,  13)
       Max divergence:  0.73E+00 at (   2,   3,   9)
       Min divergence: -0.21E+01 at (   2,   2,  12)
       Max VN number:   0.18E+00 at (  19,  20,  13)
       No. of Lagrangian Particles:         18797
 
       Time Step  104500   July 31, 2021  22:06:30
       Step Size:    0.325E-02 s, Total Time:     399.00 s
       Pressure Iterations:      4
       Maximum Velocity Error:  0.18E-01 on Mesh   4 at (   0   3  17)
       Maximum Pressure Error:  0.60E+03 on Mesh   1 at (  37  37   6)
       ---------------------------------------------------------------
       Mesh    1
       Max CFL number:  0.31E+00 at (  16,  19,  23)
       Max divergence:  0.61E+01 at (  37,  37,   6)
       Min divergence: -0.29E+01 at (  40,  40,   7)
       Max VN number:   0.86E-01 at (  37,   5,   1)
       No. of Lagrangian Particles:         28138
       Mesh    2
       Max CFL number:  0.33E+00 at (  20,  12,  19)
       Max divergence:  0.60E+01 at (   3,  40,   6)
       Min divergence: -0.24E+01 at (   1,  38,   7)
       Max VN number:   0.13E+00 at (  38,  31,   1)
       No. of Lagrangian Particles:         28422
       Mesh    3
       Max CFL number:  0.33E+00 at (  38,   3,  23)
       Max divergence:  0.55E+01 at (  39,   3,   6)
       Min divergence: -0.75E+01 at (  40,   2,  19)
       Max VN number:   0.13E+00 at (   2,  27,   1)
       No. of Lagrangian Particles:         30894
       Mesh    4
       Max CFL number:  0.36E+00 at (  28,  19,  23)
       Max divergence:  0.63E+01 at (   2,   1,   7)
       Min divergence: -0.12E+02 at (   2,   2,  12)
       Max VN number:   0.13E+00 at (  15,  38,   1)
       No. of Lagrangian Particles:         29693
       Mesh    5
       Max CFL number:  0.79E+00 at (  20,  21,  12)
       Max divergence:  0.26E+00 at (  39,  37,   8)
       Min divergence: -0.15E+01 at (  22,  20,  13)
       Max VN number:   0.24E+00 at (  20,  22,  12)
       No. of Lagrangian Particles:         17877
       Mesh    6
       Max CFL number:  0.71E+00 at (  20,  22,  13)
       Max divergence:  0.54E+00 at (   2,  40,  10)
       Min divergence: -0.18E+01 at (   2,  39,  12)
       Max VN number:   0.18E+00 at (  20,  22,  13)
       No. of Lagrangian Particles:         18646
       Mesh    7
       Max CFL number:  0.73E+00 at (  40,   1,  13)
       Max divergence:  0.61E+00 at (  36,   9,   4)
       Min divergence: -0.25E+01 at (  19,  22,  13)
       Max VN number:   0.22E+00 at (  40,   1,  12)
       No. of Lagrangian Particles:         19075
       Mesh    8
       Max CFL number:  0.77E+00 at (  20,  20,  13)
       Max divergence:  0.80E+00 at (   1,   4,   8)
       Min divergence: -0.21E+01 at (   1,   5,   7)
       Max VN number:   0.16E+00 at (   1,   1,  11)
       No. of Lagrangian Particles:         18940
 
       Time Step  104600   July 31, 2021  22:12:49
       Step Size:    0.345E-02 s, Total Time:     399.35 s
       Pressure Iterations:      4
       Maximum Velocity Error:  0.24E-01 on Mesh   7 at (  41   3  13)
       Maximum Pressure Error:  0.23E+04 on Mesh   1 at (  38  38   6)
       ---------------------------------------------------------------
       Mesh    1
       Max CFL number:  0.31E+00 at (  19,  26,  22)
       Max divergence:  0.53E+01 at (  39,  38,   6)
       Min divergence: -0.30E+01 at (  40,  39,   7)
       Max VN number:   0.13E+00 at (  25,   2,   1)
       No. of Lagrangian Particles:         28220
       Mesh    2
       Max CFL number:  0.27E+00 at (  23,  15,  23)
       Max divergence:  0.94E+01 at (   4,  39,   6)
       Min divergence: -0.34E+01 at (   1,  40,   8)
       Max VN number:   0.11E+00 at (  40,  27,   7)
       No. of Lagrangian Particles:         28356
       Mesh    3
       Max CFL number:  0.35E+00 at (  40,   2,  14)
       Max divergence:  0.58E+01 at (  37,   3,   6)
       Min divergence: -0.44E+01 at (  40,   2,  15)
       Max VN number:   0.13E+00 at (   2,  18,   1)
       No. of Lagrangian Particles:         31158
       Mesh    4
       Max CFL number:  0.39E+00 at (   1,   2,  20)
       Max divergence:  0.79E+01 at (   1,   1,   6)
       Min divergence: -0.43E+01 at (   1,   3,  10)
       Max VN number:   0.13E+00 at (  39,  22,   1)
       No. of Lagrangian Particles:         29549
       Mesh    5
       Max CFL number:  0.85E+00 at (  20,  21,  13)
       Max divergence:  0.22E+00 at (  38,  39,  10)
       Min divergence: -0.15E+01 at (  19,  19,  12)
       Max VN number:   0.21E+00 at (  20,  19,  12)
       No. of Lagrangian Particles:         17732
       Mesh    6
       Max CFL number:  0.74E+00 at (  22,  20,  13)
       Max divergence:  0.29E+00 at (   6,  40,   7)
       Min divergence: -0.14E+01 at (  22,  22,  12)
       Max VN number:   0.21E+00 at (   1,  40,  12)
       No. of Lagrangian Particles:         18954
       Mesh    7
       Max CFL number:  0.66E+00 at (  20,  21,  13)
       Max divergence:  0.12E+01 at (  39,   3,  10)
       Min divergence: -0.81E+01 at (  40,   3,  11)
       Max VN number:   0.19E+00 at (  22,  21,  12)
       No. of Lagrangian Particles:         18607
       Mesh    8
       Max CFL number:  0.67E+00 at (  21,  22,  13)
       Max divergence:  0.11E+01 at (   1,   2,  10)
       Min divergence: -0.25E+01 at (   1,   3,  10)
       Max VN number:   0.20E+00 at (  21,  21,  11)
       No. of Lagrangian Particles:         19154
 
       Time Step  104700   July 31, 2021  22:19:07
       Step Size:    0.335E-02 s, Total Time:     399.70 s
       Pressure Iterations:      5
       Maximum Velocity Error:  0.17E-01 on Mesh   5 at (  41  39  12)
       Maximum Pressure Error:  0.18E+04 on Mesh   4 at (   2   2   6)
       ---------------------------------------------------------------
       Mesh    1
       Max CFL number:  0.25E+00 at (  19,  20,  23)
       Max divergence:  0.58E+01 at (  39,  40,   6)
       Min divergence: -0.15E+01 at (  39,  39,   8)
       Max VN number:   0.12E+00 at (  26,   2,   1)
       No. of Lagrangian Particles:         28245
       Mesh    2
       Max CFL number:  0.28E+00 at (  24,  12,  18)
       Max divergence:  0.64E+01 at (   3,  39,   6)
       Min divergence: -0.28E+01 at (   2,  40,  14)
       Max VN number:   0.11E+00 at (  36,  30,   1)
       No. of Lagrangian Particles:         28678
       Mesh    3
       Max CFL number:  0.33E+00 at (  40,   5,  19)
       Max divergence:  0.54E+01 at (  38,   4,   6)
       Min divergence: -0.12E+02 at (  40,   4,  14)
       Max VN number:   0.18E+00 at (   2,   5,   1)
       No. of Lagrangian Particles:         31190
       Mesh    4
       Max CFL number:  0.38E+00 at (   2,   3,  13)
       Max divergence:  0.69E+01 at (   3,   1,   6)
       Min divergence: -0.42E+01 at (   2,   2,  16)
       Max VN number:   0.15E+00 at (  25,  40,   2)
       No. of Lagrangian Particles:         29551
       Mesh    5
       Max CFL number:  0.63E+00 at (  21,  21,  13)
       Max divergence:  0.37E+00 at (  39,  40,   9)
       Min divergence: -0.18E+01 at (  19,  20,  12)
       Max VN number:   0.17E+00 at (  20,  20,  11)
       No. of Lagrangian Particles:         17686
       Mesh    6
       Max CFL number:  0.73E+00 at (  21,  20,  13)
       Max divergence:  0.33E+00 at (  12,  21,   7)
       Min divergence: -0.19E+01 at (   2,  40,  12)
       Max VN number:   0.23E+00 at (   1,  40,  12)
       No. of Lagrangian Particles:         18942
       Mesh    7
       Max CFL number:  0.79E+00 at (  21,  21,  13)
       Max divergence:  0.82E+00 at (  39,   3,   8)
       Min divergence: -0.15E+01 at (  40,   1,  12)
       Max VN number:   0.17E+00 at (  20,  21,  11)
       No. of Lagrangian Particles:         18484
       Mesh    8
       Max CFL number:  0.74E+00 at (  19,  21,  13)
       Max divergence:  0.55E+00 at (   2,  11,  17)
       Min divergence: -0.35E+01 at (   3,   5,   8)
       Max VN number:   0.18E+00 at (  19,  21,  12)
       No. of Lagrangian Particles:         19229
 
       Time Step  104790   July 31, 2021  22:24:46
       Step Size:    0.363E-02 s, Total Time:     400.00 s
       Pressure Iterations:      5
       Maximum Velocity Error:  0.21E-01 on Mesh   6 at (   3  41  13)
       Maximum Pressure Error:  0.57E+03 on Mesh   3 at (  40   2  11)
       ---------------------------------------------------------------
       Mesh    1
       Max CFL number:  0.37E+00 at (  17,  17,  23)
       Max divergence:  0.60E+01 at (  40,  39,   6)
       Min divergence: -0.43E+01 at (  40,  40,   6)
       Max VN number:   0.14E+00 at (  12,   2,   1)
       No. of Lagrangian Particles:         28675
       Mesh    2
       Max CFL number:  0.29E+00 at (  23,  15,  20)
       Max divergence:  0.59E+01 at (   2,  38,   6)
       Min divergence: -0.36E+01 at (   3,  38,   7)
       Max VN number:   0.12E+00 at (  39,  25,   1)
       No. of Lagrangian Particles:         28543
       Mesh    3
       Max CFL number:  0.32E+00 at (  17,  21,  23)
       Max divergence:  0.59E+01 at (  39,   4,   6)
       Min divergence: -0.51E+01 at (  40,   2,  11)
       Max VN number:   0.13E+00 at (   3,   8,   1)
       No. of Lagrangian Particles:         31214
       Mesh    4
       Max CFL number:  0.42E+00 at (   2,   3,  20)
       Max divergence:  0.69E+01 at (   1,   2,   6)
       Min divergence: -0.44E+01 at (   2,   1,  10)
       Max VN number:   0.15E+00 at (   5,  38,   1)
       No. of Lagrangian Particles:         29680
       Mesh    5
       Max CFL number:  0.91E+00 at (  20,  20,  13)
       Max divergence:  0.36E+00 at (  22,  20,  13)
       Min divergence: -0.25E+01 at (  22,  20,  12)
       Max VN number:   0.22E+00 at (  20,  19,  13)
       No. of Lagrangian Particles:         17511
       Mesh    6
       Max CFL number:  0.90E+00 at (  20,  22,  12)
       Max divergence:  0.27E+00 at (   2,  40,  13)
       Min divergence: -0.20E+01 at (   2,  39,  12)
       Max VN number:   0.22E+00 at (  20,  22,  12)
       No. of Lagrangian Particles:         18875
       Mesh    7
       Max CFL number:  0.82E+00 at (  21,  21,  13)
       Max divergence:  0.39E+00 at (  20,  18,  10)
       Min divergence: -0.21E+01 at (  19,  20,  12)
       Max VN number:   0.23E+00 at (  21,  22,  12)
       No. of Lagrangian Particles:         18239
       Mesh    8
       Max CFL number:  0.65E+00 at (  20,  19,  12)
       Max divergence:  0.14E+01 at (   3,   3,   1)
       Min divergence: -0.20E+01 at (   2,   4,   4)
       Max VN number:   0.18E+00 at (  21,  21,  11)
       No. of Lagrangian Particles:         19377
 


 DEVICE Activation Times

  29  nozzle                                                          90.0 s
  30  nozzle                                                          90.0 s
  31  nozzle                                                          90.0 s
  32  nozzle                                                          90.0 s
  33  nozzle                                                          90.0 s


 Time Stepping Wall Clock Time (s):    88838.020
 Total Elapsed Wall Clock Time (s):    88855.508

STOP: FDS completed successfully (CHID: Case2_Methanol_40)
