
 Fire Dynamics Simulator

 Current Date     : July 30, 2021  23:29:28
 Revision         : FDS6.7.6-0-g5064c500c-release
 Revision Date    : Thu May 27 12:19:10 2021 -0400
 Compiler         : Intel ifort 2021.1
 Compilation Date : Tue 06/01/2021  11:25 AM

 MPI Enabled;    Number of MPI Processes:       8
 OpenMP Enabled; Number of OpenMP Threads:      1

 MPI version: 3.1
 MPI library version: Intel(R) MPI Library 2021.1 for Windows* OS


 Job TITLE        : Case1_Methanol_22kW
 Job ID string    : Case1_Methanol_22kW


 Grid Dimensions, Mesh     1

   Cells in the X Direction            40
   Cells in the Y Direction            40
   Cells in the Z Direction            23
   Number of Grid Cells             36800


 Physical Dimensions, Mesh     1

   Length (m)                       2.000
   Width  (m)                       2.000
   Height (m)                       1.150
   Initial Time Step (s)            0.052

 Grid Dimensions, Mesh     2

   Cells in the X Direction            40
   Cells in the Y Direction            40
   Cells in the Z Direction            23
   Number of Grid Cells             36800


 Physical Dimensions, Mesh     2

   Length (m)                       2.000
   Width  (m)                       2.000
   Height (m)                       1.150
   Initial Time Step (s)            0.052

 Grid Dimensions, Mesh     3

   Cells in the X Direction            40
   Cells in the Y Direction            40
   Cells in the Z Direction            23
   Number of Grid Cells             36800


 Physical Dimensions, Mesh     3

   Length (m)                       2.000
   Width  (m)                       2.000
   Height (m)                       1.150
   Initial Time Step (s)            0.052

 Grid Dimensions, Mesh     4

   Cells in the X Direction            40
   Cells in the Y Direction            40
   Cells in the Z Direction            23
   Number of Grid Cells             36800


 Physical Dimensions, Mesh     4

   Length (m)                       2.000
   Width  (m)                       2.000
   Height (m)                       1.150
   Initial Time Step (s)            0.052

 Grid Dimensions, Mesh     5

   Cells in the X Direction            40
   Cells in the Y Direction            40
   Cells in the Z Direction            23
   Number of Grid Cells             36800


 Physical Dimensions, Mesh     5

   Length (m)                       2.000
   Width  (m)                       2.000
   Height (m)                       1.150
   Initial Time Step (s)            0.052

 Grid Dimensions, Mesh     6

   Cells in the X Direction            40
   Cells in the Y Direction            40
   Cells in the Z Direction            23
   Number of Grid Cells             36800


 Physical Dimensions, Mesh     6

   Length (m)                       2.000
   Width  (m)                       2.000
   Height (m)                       1.150
   Initial Time Step (s)            0.052

 Grid Dimensions, Mesh     7

   Cells in the X Direction            40
   Cells in the Y Direction            40
   Cells in the Z Direction            23
   Number of Grid Cells             36800


 Physical Dimensions, Mesh     7

   Length (m)                       2.000
   Width  (m)                       2.000
   Height (m)                       1.150
   Initial Time Step (s)            0.052

 Grid Dimensions, Mesh     8

   Cells in the X Direction            40
   Cells in the Y Direction            40
   Cells in the Z Direction            23
   Number of Grid Cells             36800


 Physical Dimensions, Mesh     8

   Length (m)                       2.000
   Width  (m)                       2.000
   Height (m)                       1.150
   Initial Time Step (s)            0.052

Total Number of Grid Cells        294400


 Miscellaneous Parameters

   Simulation Start Time (s)          0.0
   Simulation End Time (s)          600.0
   LES Calculation
   Eddy Viscosity:           Deardorff Model (C_DEARDORFF = 0.10)
   Near-wall Eddy Viscosity: WALE Model (C_WALE = 0.60)
   Turbulent Prandtl Number:         0.50
   Turbulent Schmidt Number:         0.50
   Background Pressure (Pa):    101325.00
   Ambient Temperature (C):         27.00


 Background Stratification

      Z (m)     P_0 (Pa)    TMP_0 (C)
   ------------------------------------
        1.12    101312.14     27.00
        1.07    101312.71     27.00
        1.02    101313.28     27.00
        0.97    101313.85     27.00
        0.92    101314.42     27.00
        0.88    101315.00     27.00
        0.82    101315.57     27.00
        0.77    101316.14     27.00
        0.72    101316.71     27.00
        0.67    101317.28     27.00
        0.62    101317.85     27.00
        0.57    101318.42     27.00
        0.52    101319.00     27.00
        0.47    101319.57     27.00
        0.42    101320.14     27.00
        0.38    101320.71     27.00
        0.32    101321.28     27.00
        0.27    101321.85     27.00
        0.22    101322.42     27.00
        0.17    101323.00     27.00
        0.12    101323.57     27.00
        0.07    101324.14     27.00
        0.02    101324.71     27.00


 Mass Fraction Transformation Matrix to Convert Species Mixtures (Columns) to Primitive Species (Rows)

                         AIR       METHANOL  PRODUCTS  WATER VA
   METHANOL              0.000000  1.000000  0.000000  0.000000
   NITROGEN              0.760088  0.000000  0.658813  0.000000
   OXYGEN                0.230276  0.000000  0.000000  0.000000
   CARBON DIOXIDE        0.000590  0.000000  0.183518  0.000000
   WATER VAPOR           0.009046  0.000000  0.157669  1.000000
   CARBON MONOXIDE       0.000000  0.000000  0.000000  0.000000
   SOOT                  0.000000  0.000000  0.000000  0.000000
   HYDROGEN              0.000000  0.000000  0.000000  0.000000
   HYDROGEN CYANIDE      0.000000  0.000000  0.000000  0.000000


 Primitive Species Information

   METHANOL
   Gas Species
   Molecular Weight (g/mol)            32.04186
   Ambient Density (kg/m^3)            1.301
   Enthalpy of Formation (J/kg)       -6.40E+06

   NITROGEN
   Gas Species
   Molecular Weight (g/mol)            28.01340
   Ambient Density (kg/m^3)            1.137
   Enthalpy of Formation (J/kg)        0.00E+00

   OXYGEN
   Gas Species
   Molecular Weight (g/mol)            31.99880
   Ambient Density (kg/m^3)            1.299
   Enthalpy of Formation (J/kg)        0.00E+00

   CARBON DIOXIDE
   Gas Species
   Molecular Weight (g/mol)            44.00950
   Ambient Density (kg/m^3)            1.787
   Enthalpy of Formation (J/kg)       -8.94E+06

   WATER VAPOR
   Gas Species
   Molecular Weight (g/mol)            18.01528
   Ambient Density (kg/m^3)            0.731
   Enthalpy of Formation (J/kg)       -1.34E+07

   CARBON MONOXIDE
   Gas Species
   Molecular Weight (g/mol)            28.01010
   Ambient Density (kg/m^3)            1.137
   Enthalpy of Formation (J/kg)       -3.95E+06

   SOOT
   Gas Species
   Molecular Weight (g/mol)            10.91042
   Ambient Density (kg/m^3)            0.443
   Enthalpy of Formation (J/kg)        0.00E+00

   HYDROGEN
   Gas Species
   Molecular Weight (g/mol)             2.01588
   Ambient Density (kg/m^3)            0.082
   Enthalpy of Formation (J/kg)        0.00E+00

   HYDROGEN CYANIDE
   Gas Species
   Molecular Weight (g/mol)            27.02534
   Ambient Density (kg/m^3)            1.097
   Enthalpy of Formation (J/kg)        4.92E+06


 Tracked (Lumped) Species Information

   AIR
   Molecular Weight (g/mol)            28.69856
   Ambient Density (kg/m^3)            1.165
   Initial Mass Fraction               1.000
   Enthalpy of Formation (J/kg)     -1.27E+05

   Sub Species                    Mass Fraction     Mole Fraction
   NITROGEN                       7.600885E-01      7.786791E-01
   OXYGEN                         2.302759E-01      2.065261E-01
   CARBON DIOXIDE                 5.896176E-04      3.844892E-04
   WATER VAPOR                    9.045969E-03      1.441034E-02
 
     Viscosity (kg/m/s) Ambient,  300 K:  1.82E-05
                                  500 K:  2.61E-05
                                 1000 K:  4.12E-05
                                 1500 K:  5.37E-05
   Therm. Cond. (W/m/K) Ambient,  300 K:  2.60E-02
                                  500 K:  3.81E-02
                                 1000 K:  6.69E-02
                                 1500 K:  9.27E-02
        Enthalpy (J/kg) Ambient,  300 K: -1.25E+05
                                  500 K:  8.11E+04
                                 1000 K:  6.33E+05
                                 1500 K:  1.23E+06
    Spec. Heat (J/kg/K) Ambient,  300 K:  1.02E+03
                                  500 K:  1.04E+03
                                 1000 K:  1.16E+03
                                 1500 K:  1.23E+03
   Diff. Coeff. (m^2/s) Ambient,  300 K:  2.07E-05
                                  500 K:  4.97E-05
                                 1000 K:  1.58E-04
                                 1500 K:  3.10E-04

   METHANOL
   Molecular Weight (g/mol)            32.04186
   Ambient Density (kg/m^3)            1.301
   Initial Mass Fraction               0.000
   Enthalpy of Formation (J/kg)     -6.40E+06

   Sub Species                    Mass Fraction     Mole Fraction
   METHANOL                       1.000000E+00      1.000000E+00
 
     Viscosity (kg/m/s) Ambient,  300 K:  9.74E-06
                                  500 K:  1.64E-05
                                 1000 K:  3.13E-05
                                 1500 K:  4.32E-05
   Therm. Cond. (W/m/K) Ambient,  300 K:  1.41E-02
                                  500 K:  3.22E-02
                                 1000 K:  9.21E-02
                                 1500 K:  1.50E-01
        Enthalpy (J/kg) Ambient,  300 K: -6.27E+06
                                  500 K: -5.95E+06
                                 1000 K: -4.76E+06
                                 1500 K: -3.22E+06
    Spec. Heat (J/kg/K) Ambient,  300 K:  1.38E+03
                                  500 K:  1.86E+03
                                 1000 K:  2.79E+03
                                 1500 K:  3.29E+03
   Diff. Coeff. (m^2/s) Ambient,  300 K:  1.58E-05
                                  500 K:  4.03E-05
                                 1000 K:  1.34E-04
                                 1500 K:  2.67E-04

   PRODUCTS
   Molecular Weight (g/mol)            27.44260
   Ambient Density (kg/m^3)            1.114
   Initial Mass Fraction               0.000
   Enthalpy of Formation (J/kg)     -3.76E+06

   Sub Species                    Mass Fraction     Mole Fraction
   NITROGEN                       6.588132E-01      6.453893E-01
   CARBON DIOXIDE                 1.835182E-01      1.144348E-01
   WATER VAPOR                    1.576686E-01      2.401759E-01
   CARBON MONOXIDE                0.000000E+00      0.000000E+00
   SOOT                           0.000000E+00      0.000000E+00
   HYDROGEN CYANIDE               0.000000E+00      0.000000E+00
 
     Viscosity (kg/m/s) Ambient,  300 K:  1.60E-05
                                  500 K:  2.34E-05
                                 1000 K:  3.87E-05
                                 1500 K:  5.15E-05
   Therm. Cond. (W/m/K) Ambient,  300 K:  2.35E-02
                                  500 K:  3.60E-02
                                 1000 K:  6.82E-02
                                 1500 K:  9.93E-02
        Enthalpy (J/kg) Ambient,  300 K: -3.76E+06
                                  500 K: -3.52E+06
                                 1000 K: -2.89E+06
                                 1500 K: -2.17E+06
    Spec. Heat (J/kg/K) Ambient,  300 K:  1.13E+03
                                  500 K:  1.19E+03
                                 1000 K:  1.36E+03
                                 1500 K:  1.48E+03
   Diff. Coeff. (m^2/s) Ambient,  300 K:  2.04E-05
                                  500 K:  5.02E-05
                                 1000 K:  1.63E-04
                                 1500 K:  3.21E-04

   WATER VAPOR
   Molecular Weight (g/mol)            18.01528
   Ambient Density (kg/m^3)            0.731
   Initial Mass Fraction               0.000
   Enthalpy of Formation (J/kg)     -1.34E+07

   Sub Species                    Mass Fraction     Mole Fraction
   WATER VAPOR                    1.000000E+00      1.000000E+00
 
     Viscosity (kg/m/s) Ambient,  300 K:  1.08E-05
                                  500 K:  1.77E-05
                                 1000 K:  3.58E-05
                                 1500 K:  5.21E-05
   Therm. Cond. (W/m/K) Ambient,  300 K:  2.01E-02
                                  500 K:  3.46E-02
                                 1000 K:  8.21E-02
                                 1500 K:  1.37E-01
        Enthalpy (J/kg) Ambient,  300 K: -1.34E+07
                                  500 K: -1.30E+07
                                 1000 K: -1.20E+07
                                 1500 K: -1.07E+07
    Spec. Heat (J/kg/K) Ambient,  300 K:  1.86E+03
                                  500 K:  1.96E+03
                                 1000 K:  2.29E+03
                                 1500 K:  2.63E+03
   Diff. Coeff. (m^2/s) Ambient,  300 K:  2.19E-05
                                  500 K:  5.78E-05
                                 1000 K:  1.98E-04
                                 1500 K:  3.95E-04
 
   Liq. Enthalpy (J/kg)     Melt  273 K: -1.60E+07
                                  323 K: -1.58E+07
                            Boil  373 K: -1.56E+07
 
   Liq. Spec. Heat (J/kg/K) Melt  273 K:  4.23E+03
                                  323 K:  4.18E+03
                            Boil  373 K:  4.22E+03
 
   Heat of Vapor. (J/kg)    Melt  273 K:  2.50E+06
                                  323 K:  2.39E+06
                            Boil  373 K:  2.27E+06


 Gas Phase Reaction Information

   Fuel                                           Heat of Combustion (kJ/kg)
   METHANOL                                                       20977.6211

   Stoichiometry

   Primitive Species Stoich. Coeff.
   Species ID                                                          Molar
   METHANOL                                                        -1.000000
   OXYGEN                                                          -1.500000
   CARBON DIOXIDE                                                   1.000000
   WATER VAPOR                                                      2.000000

   Tracked (Lumped) Species Stoich. Coeff.
   Species ID                                             Molar         Mass
   AIR                                                -7.263004    -6.505171
   METHANOL                                           -1.000000    -1.000000
   PRODUCTS                                            8.763004     7.505171

   Reaction Kinetics

   Arrhenius Parameters
   Pre-exponential:    Infinite
   Activation Energy:  N/A

   ODE Solver:  EXPLICIT EULER
   Extinction Model:  EXTINCTION 2
   Auto-Ignition Temperature (K):       0.0
   Critical Flame Temperature (K):   1530.2


 Material Information

   1 CONCRETE                                                    
     Emissivity                      0.900
     Density (kg/m3)                2200.0
     Specific Heat (kJ/kg/K)      1.05E+00
     Conductivity (W/m/K)          1.40E+00

   2 STEEL                                                       
     Eurocode 3
     Emissivity                      0.900
     Density (kg/m3)                7850.0
     Specific Heat (kJ/kg/K)      4.44E-01
     Conductivity (W/m/K)          5.31E+01


 Surface Conditions

   0 INERT (DEFAULT)

   1 Methanol22.00kW
     HRR Per Unit Area (kW/m2)        244.4
     METHANOL Mass Flux (kg/s/m2)   1.17E-02

   2 STEEL_1mm
     Material List
          1  STEEL
     Layer  1
        Thickness   (m):  0.00200
        Density (kg/m3):  7850.00
        STEEL, Mass fraction:    1.00
     Total surface density    15.700 kg/m2
     Reaction products considered from the first  0.50 layers.
     Solid Phase Node, Layer, Coordinates(m):
                    0      1       0.0000000
                    1      1       0.0020000
     Exposed Backing

   3 OPEN
     Passive Vent to Atmosphere

   4 MIRROR
     Symmetry Plane

   5 INTERPOLATED

   6 PERIODIC

   7 HVAC

   8 MASSLESS TRACER

   9 DROPLET

  10 EVACUATION_OUTFLOW
     Normal Velocity (m/s)         0.000

  11 MASSLESS TARGET

  12 PERIODIC FLOW ONLY


 Device Properties

   1 TC
     Smokeview ID                sensor

   2 particle_nozzles
     Flow Rate (L/min)               6.00
     Particle Class              water_droplets
     Smokeview ID                nozzle


 Cut-off Density and Temperature

    Minimum Temperature:   -10.0 C
    Maximum Temperature:  2726.8 C
    Minimum Density:  1.165E-01 kg/m3
    Maximum Density:  2.968E+00 kg/m3


 Device Coordinates

     1 Coords:      2.500000      1.999500      1.800000, Make: null, ID: First_Ceiling_Gas_Temperature, Quantity: THERMOCOUPLE
     2 Coords:      3.800000      1.999500      1.800000, Make: null, ID: Fourth_Ceiling_Gas_Temperature, Quantity: THERMOCOUPLE
     3 Coords:      1.000000      1.999500      0.500000, Make: null, ID: LOWER_LAYER_THERMOCOUPLE.001, Quantity: TEMPERATURE
     4 Coords:      3.000000      1.999500      1.800000, Make: null, ID: Second_Ceiling_Gas_Temperature, Quantity: THERMOCOUPLE
     5 Coords:      3.500000      1.999500      1.800000, Make: null, ID: Third_Ceiling_Gas_Temperature, Quantity: THERMOCOUPLE
     6 Coords:      1.000000      1.999500      1.800000, Make: null, ID: UPPER_LAYER_THERMOCOUPLE.001, Quantity: TEMPERATURE
     7 Coords:      2.425000      1.925000      1.725000, Make: TC, ID: First_Ceiling_Gas_Temperature_R2.001, Quantity: THERMOCOUPLE
     8 Coords:      2.475000      1.925000      1.725000, Make: TC, ID: First_Ceiling_Gas_Temperature_R2.002, Quantity: THERMOCOUPLE
     9 Coords:      2.525000      1.925000      1.725000, Make: TC, ID: First_Ceiling_Gas_Temperature_R2.003, Quantity: THERMOCOUPLE
    10 Coords:      2.575000      1.925000      1.725000, Make: TC, ID: First_Ceiling_Gas_Temperature_R2.004, Quantity: THERMOCOUPLE
    11 Coords:      2.425000      1.975000      1.725000, Make: TC, ID: First_Ceiling_Gas_Temperature_R2.005, Quantity: THERMOCOUPLE
    12 Coords:      2.475000      1.975000      1.725000, Make: TC, ID: First_Ceiling_Gas_Temperature_R2.006, Quantity: THERMOCOUPLE
    13 Coords:      2.525000      1.975000      1.725000, Make: TC, ID: First_Ceiling_Gas_Temperature_R2.007, Quantity: THERMOCOUPLE
    14 Coords:      2.575000      1.975000      1.725000, Make: TC, ID: First_Ceiling_Gas_Temperature_R2.008, Quantity: THERMOCOUPLE
    15 Coords:      2.425000      2.025000      1.725000, Make: TC, ID: First_Ceiling_Gas_Temperature_R2.009, Quantity: THERMOCOUPLE
    16 Coords:      2.475000      2.025000      1.725000, Make: TC, ID: First_Ceiling_Gas_Temperature_R2.010, Quantity: THERMOCOUPLE
    17 Coords:      2.525000      2.025000      1.725000, Make: TC, ID: First_Ceiling_Gas_Temperature_R2.011, Quantity: THERMOCOUPLE
    18 Coords:      2.575000      2.025000      1.725000, Make: TC, ID: First_Ceiling_Gas_Temperature_R2.012, Quantity: THERMOCOUPLE
    19 Coords:      2.425000      2.075000      1.725000, Make: TC, ID: First_Ceiling_Gas_Temperature_R2.013, Quantity: THERMOCOUPLE
    20 Coords:      2.475000      2.075000      1.725000, Make: TC, ID: First_Ceiling_Gas_Temperature_R2.014, Quantity: THERMOCOUPLE
    21 Coords:      2.525000      2.075000      1.725000, Make: TC, ID: First_Ceiling_Gas_Temperature_R2.015, Quantity: THERMOCOUPLE
    22 Coords:      2.575000      2.075000      1.725000, Make: TC, ID: First_Ceiling_Gas_Temperature_R2.016, Quantity: THERMOCOUPLE
    23 Coords:      2.425000      1.925000      1.775000, Make: TC, ID: First_Ceiling_Gas_Temperature_R2.017, Quantity: THERMOCOUPLE
    24 Coords:      2.475000      1.925000      1.775000, Make: TC, ID: First_Ceiling_Gas_Temperature_R2.018, Quantity: THERMOCOUPLE
    25 Coords:      2.525000      1.925000      1.775000, Make: TC, ID: First_Ceiling_Gas_Temperature_R2.019, Quantity: THERMOCOUPLE
    26 Coords:      2.575000      1.925000      1.775000, Make: TC, ID: First_Ceiling_Gas_Temperature_R2.020, Quantity: THERMOCOUPLE
    27 Coords:      2.425000      1.975000      1.775000, Make: TC, ID: First_Ceiling_Gas_Temperature_R2.021, Quantity: THERMOCOUPLE
    28 Coords:      2.475000      1.975000      1.775000, Make: TC, ID: First_Ceiling_Gas_Temperature_R2.022, Quantity: THERMOCOUPLE
    29 Coords:      2.525000      1.975000      1.775000, Make: TC, ID: First_Ceiling_Gas_Temperature_R2.023, Quantity: THERMOCOUPLE
    30 Coords:      2.575000      1.975000      1.775000, Make: TC, ID: First_Ceiling_Gas_Temperature_R2.024, Quantity: THERMOCOUPLE
    31 Coords:      2.425000      2.025000      1.775000, Make: TC, ID: First_Ceiling_Gas_Temperature_R2.025, Quantity: THERMOCOUPLE
    32 Coords:      2.475000      2.025000      1.775000, Make: TC, ID: First_Ceiling_Gas_Temperature_R2.026, Quantity: THERMOCOUPLE
    33 Coords:      2.525000      2.025000      1.775000, Make: TC, ID: First_Ceiling_Gas_Temperature_R2.027, Quantity: THERMOCOUPLE
    34 Coords:      2.575000      2.025000      1.775000, Make: TC, ID: First_Ceiling_Gas_Temperature_R2.028, Quantity: THERMOCOUPLE
    35 Coords:      2.425000      2.075000      1.775000, Make: TC, ID: First_Ceiling_Gas_Temperature_R2.029, Quantity: THERMOCOUPLE
    36 Coords:      2.475000      2.075000      1.775000, Make: TC, ID: First_Ceiling_Gas_Temperature_R2.030, Quantity: THERMOCOUPLE
    37 Coords:      2.525000      2.075000      1.775000, Make: TC, ID: First_Ceiling_Gas_Temperature_R2.031, Quantity: THERMOCOUPLE
    38 Coords:      2.575000      2.075000      1.775000, Make: TC, ID: First_Ceiling_Gas_Temperature_R2.032, Quantity: THERMOCOUPLE
    39 Coords:      2.425000      1.925000      1.825000, Make: TC, ID: First_Ceiling_Gas_Temperature_R2.033, Quantity: THERMOCOUPLE
    40 Coords:      2.475000      1.925000      1.825000, Make: TC, ID: First_Ceiling_Gas_Temperature_R2.034, Quantity: THERMOCOUPLE
    41 Coords:      2.525000      1.925000      1.825000, Make: TC, ID: First_Ceiling_Gas_Temperature_R2.035, Quantity: THERMOCOUPLE
    42 Coords:      2.575000      1.925000      1.825000, Make: TC, ID: First_Ceiling_Gas_Temperature_R2.036, Quantity: THERMOCOUPLE
    43 Coords:      2.425000      1.975000      1.825000, Make: TC, ID: First_Ceiling_Gas_Temperature_R2.037, Quantity: THERMOCOUPLE
    44 Coords:      2.475000      1.975000      1.825000, Make: TC, ID: First_Ceiling_Gas_Temperature_R2.038, Quantity: THERMOCOUPLE
    45 Coords:      2.525000      1.975000      1.825000, Make: TC, ID: First_Ceiling_Gas_Temperature_R2.039, Quantity: THERMOCOUPLE
    46 Coords:      2.575000      1.975000      1.825000, Make: TC, ID: First_Ceiling_Gas_Temperature_R2.040, Quantity: THERMOCOUPLE
    47 Coords:      2.425000      2.025000      1.825000, Make: TC, ID: First_Ceiling_Gas_Temperature_R2.041, Quantity: THERMOCOUPLE
    48 Coords:      2.475000      2.025000      1.825000, Make: TC, ID: First_Ceiling_Gas_Temperature_R2.042, Quantity: THERMOCOUPLE
    49 Coords:      2.525000      2.025000      1.825000, Make: TC, ID: First_Ceiling_Gas_Temperature_R2.043, Quantity: THERMOCOUPLE
    50 Coords:      2.575000      2.025000      1.825000, Make: TC, ID: First_Ceiling_Gas_Temperature_R2.044, Quantity: THERMOCOUPLE
    51 Coords:      2.425000      2.075000      1.825000, Make: TC, ID: First_Ceiling_Gas_Temperature_R2.045, Quantity: THERMOCOUPLE
    52 Coords:      2.475000      2.075000      1.825000, Make: TC, ID: First_Ceiling_Gas_Temperature_R2.046, Quantity: THERMOCOUPLE
    53 Coords:      2.525000      2.075000      1.825000, Make: TC, ID: First_Ceiling_Gas_Temperature_R2.047, Quantity: THERMOCOUPLE
    54 Coords:      2.575000      2.075000      1.825000, Make: TC, ID: First_Ceiling_Gas_Temperature_R2.048, Quantity: THERMOCOUPLE
    55 Coords:      2.425000      1.925000      1.875000, Make: TC, ID: First_Ceiling_Gas_Temperature_R2.049, Quantity: THERMOCOUPLE
    56 Coords:      2.475000      1.925000      1.875000, Make: TC, ID: First_Ceiling_Gas_Temperature_R2.050, Quantity: THERMOCOUPLE
    57 Coords:      2.525000      1.925000      1.875000, Make: TC, ID: First_Ceiling_Gas_Temperature_R2.051, Quantity: THERMOCOUPLE
    58 Coords:      2.575000      1.925000      1.875000, Make: TC, ID: First_Ceiling_Gas_Temperature_R2.052, Quantity: THERMOCOUPLE
    59 Coords:      2.425000      1.975000      1.875000, Make: TC, ID: First_Ceiling_Gas_Temperature_R2.053, Quantity: THERMOCOUPLE
    60 Coords:      2.475000      1.975000      1.875000, Make: TC, ID: First_Ceiling_Gas_Temperature_R2.054, Quantity: THERMOCOUPLE
    61 Coords:      2.525000      1.975000      1.875000, Make: TC, ID: First_Ceiling_Gas_Temperature_R2.055, Quantity: THERMOCOUPLE
    62 Coords:      2.575000      1.975000      1.875000, Make: TC, ID: First_Ceiling_Gas_Temperature_R2.056, Quantity: THERMOCOUPLE
    63 Coords:      2.425000      2.025000      1.875000, Make: TC, ID: First_Ceiling_Gas_Temperature_R2.057, Quantity: THERMOCOUPLE
    64 Coords:      2.475000      2.025000      1.875000, Make: TC, ID: First_Ceiling_Gas_Temperature_R2.058, Quantity: THERMOCOUPLE
    65 Coords:      2.525000      2.025000      1.875000, Make: TC, ID: First_Ceiling_Gas_Temperature_R2.059, Quantity: THERMOCOUPLE
    66 Coords:      2.575000      2.025000      1.875000, Make: TC, ID: First_Ceiling_Gas_Temperature_R2.060, Quantity: THERMOCOUPLE
    67 Coords:      2.425000      2.075000      1.875000, Make: TC, ID: First_Ceiling_Gas_Temperature_R2.061, Quantity: THERMOCOUPLE
    68 Coords:      2.475000      2.075000      1.875000, Make: TC, ID: First_Ceiling_Gas_Temperature_R2.062, Quantity: THERMOCOUPLE
    69 Coords:      2.525000      2.075000      1.875000, Make: TC, ID: First_Ceiling_Gas_Temperature_R2.063, Quantity: THERMOCOUPLE
    70 Coords:      2.575000      2.075000      1.875000, Make: TC, ID: First_Ceiling_Gas_Temperature_R2.064, Quantity: THERMOCOUPLE
    71 Coords:      2.925000      1.925000      1.725000, Make: TC, ID: Second_Ceiling_Gas_Temperature_R2.001, Quantity: THERMOCOUPLE
    72 Coords:      2.975000      1.925000      1.725000, Make: TC, ID: Second_Ceiling_Gas_Temperature_R2.002, Quantity: THERMOCOUPLE
    73 Coords:      3.025000      1.925000      1.725000, Make: TC, ID: Second_Ceiling_Gas_Temperature_R2.003, Quantity: THERMOCOUPLE
    74 Coords:      3.075000      1.925000      1.725000, Make: TC, ID: Second_Ceiling_Gas_Temperature_R2.004, Quantity: THERMOCOUPLE
    75 Coords:      2.925000      1.975000      1.725000, Make: TC, ID: Second_Ceiling_Gas_Temperature_R2.005, Quantity: THERMOCOUPLE
    76 Coords:      2.975000      1.975000      1.725000, Make: TC, ID: Second_Ceiling_Gas_Temperature_R2.006, Quantity: THERMOCOUPLE
    77 Coords:      3.025000      1.975000      1.725000, Make: TC, ID: Second_Ceiling_Gas_Temperature_R2.007, Quantity: THERMOCOUPLE
    78 Coords:      3.075000      1.975000      1.725000, Make: TC, ID: Second_Ceiling_Gas_Temperature_R2.008, Quantity: THERMOCOUPLE
    79 Coords:      2.925000      2.025000      1.725000, Make: TC, ID: Second_Ceiling_Gas_Temperature_R2.009, Quantity: THERMOCOUPLE
    80 Coords:      2.975000      2.025000      1.725000, Make: TC, ID: Second_Ceiling_Gas_Temperature_R2.010, Quantity: THERMOCOUPLE
    81 Coords:      3.025000      2.025000      1.725000, Make: TC, ID: Second_Ceiling_Gas_Temperature_R2.011, Quantity: THERMOCOUPLE
    82 Coords:      3.075000      2.025000      1.725000, Make: TC, ID: Second_Ceiling_Gas_Temperature_R2.012, Quantity: THERMOCOUPLE
    83 Coords:      2.925000      2.075000      1.725000, Make: TC, ID: Second_Ceiling_Gas_Temperature_R2.013, Quantity: THERMOCOUPLE
    84 Coords:      2.975000      2.075000      1.725000, Make: TC, ID: Second_Ceiling_Gas_Temperature_R2.014, Quantity: THERMOCOUPLE
    85 Coords:      3.025000      2.075000      1.725000, Make: TC, ID: Second_Ceiling_Gas_Temperature_R2.015, Quantity: THERMOCOUPLE
    86 Coords:      3.075000      2.075000      1.725000, Make: TC, ID: Second_Ceiling_Gas_Temperature_R2.016, Quantity: THERMOCOUPLE
    87 Coords:      2.925000      1.925000      1.775000, Make: TC, ID: Second_Ceiling_Gas_Temperature_R2.017, Quantity: THERMOCOUPLE
    88 Coords:      2.975000      1.925000      1.775000, Make: TC, ID: Second_Ceiling_Gas_Temperature_R2.018, Quantity: THERMOCOUPLE
    89 Coords:      3.025000      1.925000      1.775000, Make: TC, ID: Second_Ceiling_Gas_Temperature_R2.019, Quantity: THERMOCOUPLE
    90 Coords:      3.075000      1.925000      1.775000, Make: TC, ID: Second_Ceiling_Gas_Temperature_R2.020, Quantity: THERMOCOUPLE
    91 Coords:      2.925000      1.975000      1.775000, Make: TC, ID: Second_Ceiling_Gas_Temperature_R2.021, Quantity: THERMOCOUPLE
    92 Coords:      2.975000      1.975000      1.775000, Make: TC, ID: Second_Ceiling_Gas_Temperature_R2.022, Quantity: THERMOCOUPLE
    93 Coords:      3.025000      1.975000      1.775000, Make: TC, ID: Second_Ceiling_Gas_Temperature_R2.023, Quantity: THERMOCOUPLE
    94 Coords:      3.075000      1.975000      1.775000, Make: TC, ID: Second_Ceiling_Gas_Temperature_R2.024, Quantity: THERMOCOUPLE
    95 Coords:      2.925000      2.025000      1.775000, Make: TC, ID: Second_Ceiling_Gas_Temperature_R2.025, Quantity: THERMOCOUPLE
    96 Coords:      2.975000      2.025000      1.775000, Make: TC, ID: Second_Ceiling_Gas_Temperature_R2.026, Quantity: THERMOCOUPLE
    97 Coords:      3.025000      2.025000      1.775000, Make: TC, ID: Second_Ceiling_Gas_Temperature_R2.027, Quantity: THERMOCOUPLE
    98 Coords:      3.075000      2.025000      1.775000, Make: TC, ID: Second_Ceiling_Gas_Temperature_R2.028, Quantity: THERMOCOUPLE
    99 Coords:      2.925000      2.075000      1.775000, Make: TC, ID: Second_Ceiling_Gas_Temperature_R2.029, Quantity: THERMOCOUPLE
   100 Coords:      2.975000      2.075000      1.775000, Make: TC, ID: Second_Ceiling_Gas_Temperature_R2.030, Quantity: THERMOCOUPLE
   101 Coords:      3.025000      2.075000      1.775000, Make: TC, ID: Second_Ceiling_Gas_Temperature_R2.031, Quantity: THERMOCOUPLE
   102 Coords:      3.075000      2.075000      1.775000, Make: TC, ID: Second_Ceiling_Gas_Temperature_R2.032, Quantity: THERMOCOUPLE
   103 Coords:      2.925000      1.925000      1.825000, Make: TC, ID: Second_Ceiling_Gas_Temperature_R2.033, Quantity: THERMOCOUPLE
   104 Coords:      2.975000      1.925000      1.825000, Make: TC, ID: Second_Ceiling_Gas_Temperature_R2.034, Quantity: THERMOCOUPLE
   105 Coords:      3.025000      1.925000      1.825000, Make: TC, ID: Second_Ceiling_Gas_Temperature_R2.035, Quantity: THERMOCOUPLE
   106 Coords:      3.075000      1.925000      1.825000, Make: TC, ID: Second_Ceiling_Gas_Temperature_R2.036, Quantity: THERMOCOUPLE
   107 Coords:      2.925000      1.975000      1.825000, Make: TC, ID: Second_Ceiling_Gas_Temperature_R2.037, Quantity: THERMOCOUPLE
   108 Coords:      2.975000      1.975000      1.825000, Make: TC, ID: Second_Ceiling_Gas_Temperature_R2.038, Quantity: THERMOCOUPLE
   109 Coords:      3.025000      1.975000      1.825000, Make: TC, ID: Second_Ceiling_Gas_Temperature_R2.039, Quantity: THERMOCOUPLE
   110 Coords:      3.075000      1.975000      1.825000, Make: TC, ID: Second_Ceiling_Gas_Temperature_R2.040, Quantity: THERMOCOUPLE
   111 Coords:      2.925000      2.025000      1.825000, Make: TC, ID: Second_Ceiling_Gas_Temperature_R2.041, Quantity: THERMOCOUPLE
   112 Coords:      2.975000      2.025000      1.825000, Make: TC, ID: Second_Ceiling_Gas_Temperature_R2.042, Quantity: THERMOCOUPLE
   113 Coords:      3.025000      2.025000      1.825000, Make: TC, ID: Second_Ceiling_Gas_Temperature_R2.043, Quantity: THERMOCOUPLE
   114 Coords:      3.075000      2.025000      1.825000, Make: TC, ID: Second_Ceiling_Gas_Temperature_R2.044, Quantity: THERMOCOUPLE
   115 Coords:      2.925000      2.075000      1.825000, Make: TC, ID: Second_Ceiling_Gas_Temperature_R2.045, Quantity: THERMOCOUPLE
   116 Coords:      2.975000      2.075000      1.825000, Make: TC, ID: Second_Ceiling_Gas_Temperature_R2.046, Quantity: THERMOCOUPLE
   117 Coords:      3.025000      2.075000      1.825000, Make: TC, ID: Second_Ceiling_Gas_Temperature_R2.047, Quantity: THERMOCOUPLE
   118 Coords:      3.075000      2.075000      1.825000, Make: TC, ID: Second_Ceiling_Gas_Temperature_R2.048, Quantity: THERMOCOUPLE
   119 Coords:      2.925000      1.925000      1.875000, Make: TC, ID: Second_Ceiling_Gas_Temperature_R2.049, Quantity: THERMOCOUPLE
   120 Coords:      2.975000      1.925000      1.875000, Make: TC, ID: Second_Ceiling_Gas_Temperature_R2.050, Quantity: THERMOCOUPLE
   121 Coords:      3.025000      1.925000      1.875000, Make: TC, ID: Second_Ceiling_Gas_Temperature_R2.051, Quantity: THERMOCOUPLE
   122 Coords:      3.075000      1.925000      1.875000, Make: TC, ID: Second_Ceiling_Gas_Temperature_R2.052, Quantity: THERMOCOUPLE
   123 Coords:      2.925000      1.975000      1.875000, Make: TC, ID: Second_Ceiling_Gas_Temperature_R2.053, Quantity: THERMOCOUPLE
   124 Coords:      2.975000      1.975000      1.875000, Make: TC, ID: Second_Ceiling_Gas_Temperature_R2.054, Quantity: THERMOCOUPLE
   125 Coords:      3.025000      1.975000      1.875000, Make: TC, ID: Second_Ceiling_Gas_Temperature_R2.055, Quantity: THERMOCOUPLE
   126 Coords:      3.075000      1.975000      1.875000, Make: TC, ID: Second_Ceiling_Gas_Temperature_R2.056, Quantity: THERMOCOUPLE
   127 Coords:      2.925000      2.025000      1.875000, Make: TC, ID: Second_Ceiling_Gas_Temperature_R2.057, Quantity: THERMOCOUPLE
   128 Coords:      2.975000      2.025000      1.875000, Make: TC, ID: Second_Ceiling_Gas_Temperature_R2.058, Quantity: THERMOCOUPLE
   129 Coords:      3.025000      2.025000      1.875000, Make: TC, ID: Second_Ceiling_Gas_Temperature_R2.059, Quantity: THERMOCOUPLE
   130 Coords:      3.075000      2.025000      1.875000, Make: TC, ID: Second_Ceiling_Gas_Temperature_R2.060, Quantity: THERMOCOUPLE
   131 Coords:      2.925000      2.075000      1.875000, Make: TC, ID: Second_Ceiling_Gas_Temperature_R2.061, Quantity: THERMOCOUPLE
   132 Coords:      2.975000      2.075000      1.875000, Make: TC, ID: Second_Ceiling_Gas_Temperature_R2.062, Quantity: THERMOCOUPLE
   133 Coords:      3.025000      2.075000      1.875000, Make: TC, ID: Second_Ceiling_Gas_Temperature_R2.063, Quantity: THERMOCOUPLE
   134 Coords:      3.075000      2.075000      1.875000, Make: TC, ID: Second_Ceiling_Gas_Temperature_R2.064, Quantity: THERMOCOUPLE
   135 Coords:      3.425000      1.925000      1.725000, Make: TC, ID: Third_Ceiling_Gas_Temperature_R2.001, Quantity: THERMOCOUPLE
   136 Coords:      3.475000      1.925000      1.725000, Make: TC, ID: Third_Ceiling_Gas_Temperature_R2.002, Quantity: THERMOCOUPLE
   137 Coords:      3.525000      1.925000      1.725000, Make: TC, ID: Third_Ceiling_Gas_Temperature_R2.003, Quantity: THERMOCOUPLE
   138 Coords:      3.575000      1.925000      1.725000, Make: TC, ID: Third_Ceiling_Gas_Temperature_R2.004, Quantity: THERMOCOUPLE
   139 Coords:      3.425000      1.975000      1.725000, Make: TC, ID: Third_Ceiling_Gas_Temperature_R2.005, Quantity: THERMOCOUPLE
   140 Coords:      3.475000      1.975000      1.725000, Make: TC, ID: Third_Ceiling_Gas_Temperature_R2.006, Quantity: THERMOCOUPLE
   141 Coords:      3.525000      1.975000      1.725000, Make: TC, ID: Third_Ceiling_Gas_Temperature_R2.007, Quantity: THERMOCOUPLE
   142 Coords:      3.575000      1.975000      1.725000, Make: TC, ID: Third_Ceiling_Gas_Temperature_R2.008, Quantity: THERMOCOUPLE
   143 Coords:      3.425000      2.025000      1.725000, Make: TC, ID: Third_Ceiling_Gas_Temperature_R2.009, Quantity: THERMOCOUPLE
   144 Coords:      3.475000      2.025000      1.725000, Make: TC, ID: Third_Ceiling_Gas_Temperature_R2.010, Quantity: THERMOCOUPLE
   145 Coords:      3.525000      2.025000      1.725000, Make: TC, ID: Third_Ceiling_Gas_Temperature_R2.011, Quantity: THERMOCOUPLE
   146 Coords:      3.575000      2.025000      1.725000, Make: TC, ID: Third_Ceiling_Gas_Temperature_R2.012, Quantity: THERMOCOUPLE
   147 Coords:      3.425000      2.075000      1.725000, Make: TC, ID: Third_Ceiling_Gas_Temperature_R2.013, Quantity: THERMOCOUPLE
   148 Coords:      3.475000      2.075000      1.725000, Make: TC, ID: Third_Ceiling_Gas_Temperature_R2.014, Quantity: THERMOCOUPLE
   149 Coords:      3.525000      2.075000      1.725000, Make: TC, ID: Third_Ceiling_Gas_Temperature_R2.015, Quantity: THERMOCOUPLE
   150 Coords:      3.575000      2.075000      1.725000, Make: TC, ID: Third_Ceiling_Gas_Temperature_R2.016, Quantity: THERMOCOUPLE
   151 Coords:      3.425000      1.925000      1.775000, Make: TC, ID: Third_Ceiling_Gas_Temperature_R2.017, Quantity: THERMOCOUPLE
   152 Coords:      3.475000      1.925000      1.775000, Make: TC, ID: Third_Ceiling_Gas_Temperature_R2.018, Quantity: THERMOCOUPLE
   153 Coords:      3.525000      1.925000      1.775000, Make: TC, ID: Third_Ceiling_Gas_Temperature_R2.019, Quantity: THERMOCOUPLE
   154 Coords:      3.575000      1.925000      1.775000, Make: TC, ID: Third_Ceiling_Gas_Temperature_R2.020, Quantity: THERMOCOUPLE
   155 Coords:      3.425000      1.975000      1.775000, Make: TC, ID: Third_Ceiling_Gas_Temperature_R2.021, Quantity: THERMOCOUPLE
   156 Coords:      3.475000      1.975000      1.775000, Make: TC, ID: Third_Ceiling_Gas_Temperature_R2.022, Quantity: THERMOCOUPLE
   157 Coords:      3.525000      1.975000      1.775000, Make: TC, ID: Third_Ceiling_Gas_Temperature_R2.023, Quantity: THERMOCOUPLE
   158 Coords:      3.575000      1.975000      1.775000, Make: TC, ID: Third_Ceiling_Gas_Temperature_R2.024, Quantity: THERMOCOUPLE
   159 Coords:      3.425000      2.025000      1.775000, Make: TC, ID: Third_Ceiling_Gas_Temperature_R2.025, Quantity: THERMOCOUPLE
   160 Coords:      3.475000      2.025000      1.775000, Make: TC, ID: Third_Ceiling_Gas_Temperature_R2.026, Quantity: THERMOCOUPLE
   161 Coords:      3.525000      2.025000      1.775000, Make: TC, ID: Third_Ceiling_Gas_Temperature_R2.027, Quantity: THERMOCOUPLE
   162 Coords:      3.575000      2.025000      1.775000, Make: TC, ID: Third_Ceiling_Gas_Temperature_R2.028, Quantity: THERMOCOUPLE
   163 Coords:      3.425000      2.075000      1.775000, Make: TC, ID: Third_Ceiling_Gas_Temperature_R2.029, Quantity: THERMOCOUPLE
   164 Coords:      3.475000      2.075000      1.775000, Make: TC, ID: Third_Ceiling_Gas_Temperature_R2.030, Quantity: THERMOCOUPLE
   165 Coords:      3.525000      2.075000      1.775000, Make: TC, ID: Third_Ceiling_Gas_Temperature_R2.031, Quantity: THERMOCOUPLE
   166 Coords:      3.575000      2.075000      1.775000, Make: TC, ID: Third_Ceiling_Gas_Temperature_R2.032, Quantity: THERMOCOUPLE
   167 Coords:      3.425000      1.925000      1.825000, Make: TC, ID: Third_Ceiling_Gas_Temperature_R2.033, Quantity: THERMOCOUPLE
   168 Coords:      3.475000      1.925000      1.825000, Make: TC, ID: Third_Ceiling_Gas_Temperature_R2.034, Quantity: THERMOCOUPLE
   169 Coords:      3.525000      1.925000      1.825000, Make: TC, ID: Third_Ceiling_Gas_Temperature_R2.035, Quantity: THERMOCOUPLE
   170 Coords:      3.575000      1.925000      1.825000, Make: TC, ID: Third_Ceiling_Gas_Temperature_R2.036, Quantity: THERMOCOUPLE
   171 Coords:      3.425000      1.975000      1.825000, Make: TC, ID: Third_Ceiling_Gas_Temperature_R2.037, Quantity: THERMOCOUPLE
   172 Coords:      3.475000      1.975000      1.825000, Make: TC, ID: Third_Ceiling_Gas_Temperature_R2.038, Quantity: THERMOCOUPLE
   173 Coords:      3.525000      1.975000      1.825000, Make: TC, ID: Third_Ceiling_Gas_Temperature_R2.039, Quantity: THERMOCOUPLE
   174 Coords:      3.575000      1.975000      1.825000, Make: TC, ID: Third_Ceiling_Gas_Temperature_R2.040, Quantity: THERMOCOUPLE
   175 Coords:      3.425000      2.025000      1.825000, Make: TC, ID: Third_Ceiling_Gas_Temperature_R2.041, Quantity: THERMOCOUPLE
   176 Coords:      3.475000      2.025000      1.825000, Make: TC, ID: Third_Ceiling_Gas_Temperature_R2.042, Quantity: THERMOCOUPLE
   177 Coords:      3.525000      2.025000      1.825000, Make: TC, ID: Third_Ceiling_Gas_Temperature_R2.043, Quantity: THERMOCOUPLE
   178 Coords:      3.575000      2.025000      1.825000, Make: TC, ID: Third_Ceiling_Gas_Temperature_R2.044, Quantity: THERMOCOUPLE
   179 Coords:      3.425000      2.075000      1.825000, Make: TC, ID: Third_Ceiling_Gas_Temperature_R2.045, Quantity: THERMOCOUPLE
   180 Coords:      3.475000      2.075000      1.825000, Make: TC, ID: Third_Ceiling_Gas_Temperature_R2.046, Quantity: THERMOCOUPLE
   181 Coords:      3.525000      2.075000      1.825000, Make: TC, ID: Third_Ceiling_Gas_Temperature_R2.047, Quantity: THERMOCOUPLE
   182 Coords:      3.575000      2.075000      1.825000, Make: TC, ID: Third_Ceiling_Gas_Temperature_R2.048, Quantity: THERMOCOUPLE
   183 Coords:      3.425000      1.925000      1.875000, Make: TC, ID: Third_Ceiling_Gas_Temperature_R2.049, Quantity: THERMOCOUPLE
   184 Coords:      3.475000      1.925000      1.875000, Make: TC, ID: Third_Ceiling_Gas_Temperature_R2.050, Quantity: THERMOCOUPLE
   185 Coords:      3.525000      1.925000      1.875000, Make: TC, ID: Third_Ceiling_Gas_Temperature_R2.051, Quantity: THERMOCOUPLE
   186 Coords:      3.575000      1.925000      1.875000, Make: TC, ID: Third_Ceiling_Gas_Temperature_R2.052, Quantity: THERMOCOUPLE
   187 Coords:      3.425000      1.975000      1.875000, Make: TC, ID: Third_Ceiling_Gas_Temperature_R2.053, Quantity: THERMOCOUPLE
   188 Coords:      3.475000      1.975000      1.875000, Make: TC, ID: Third_Ceiling_Gas_Temperature_R2.054, Quantity: THERMOCOUPLE
   189 Coords:      3.525000      1.975000      1.875000, Make: TC, ID: Third_Ceiling_Gas_Temperature_R2.055, Quantity: THERMOCOUPLE
   190 Coords:      3.575000      1.975000      1.875000, Make: TC, ID: Third_Ceiling_Gas_Temperature_R2.056, Quantity: THERMOCOUPLE
   191 Coords:      3.425000      2.025000      1.875000, Make: TC, ID: Third_Ceiling_Gas_Temperature_R2.057, Quantity: THERMOCOUPLE
   192 Coords:      3.475000      2.025000      1.875000, Make: TC, ID: Third_Ceiling_Gas_Temperature_R2.058, Quantity: THERMOCOUPLE
   193 Coords:      3.525000      2.025000      1.875000, Make: TC, ID: Third_Ceiling_Gas_Temperature_R2.059, Quantity: THERMOCOUPLE
   194 Coords:      3.575000      2.025000      1.875000, Make: TC, ID: Third_Ceiling_Gas_Temperature_R2.060, Quantity: THERMOCOUPLE
   195 Coords:      3.425000      2.075000      1.875000, Make: TC, ID: Third_Ceiling_Gas_Temperature_R2.061, Quantity: THERMOCOUPLE
   196 Coords:      3.475000      2.075000      1.875000, Make: TC, ID: Third_Ceiling_Gas_Temperature_R2.062, Quantity: THERMOCOUPLE
   197 Coords:      3.525000      2.075000      1.875000, Make: TC, ID: Third_Ceiling_Gas_Temperature_R2.063, Quantity: THERMOCOUPLE
   198 Coords:      3.575000      2.075000      1.875000, Make: TC, ID: Third_Ceiling_Gas_Temperature_R2.064, Quantity: THERMOCOUPLE
   199 Coords:      3.725000      1.925000      1.725000, Make: TC, ID: Fourth_Ceiling_Gas_Temperature_R2.001, Quantity: THERMOCOUPLE
   200 Coords:      3.775000      1.925000      1.725000, Make: TC, ID: Fourth_Ceiling_Gas_Temperature_R2.002, Quantity: THERMOCOUPLE
   201 Coords:      3.825000      1.925000      1.725000, Make: TC, ID: Fourth_Ceiling_Gas_Temperature_R2.003, Quantity: THERMOCOUPLE
   202 Coords:      3.875000      1.925000      1.725000, Make: TC, ID: Fourth_Ceiling_Gas_Temperature_R2.004, Quantity: THERMOCOUPLE
   203 Coords:      3.725000      1.975000      1.725000, Make: TC, ID: Fourth_Ceiling_Gas_Temperature_R2.005, Quantity: THERMOCOUPLE
   204 Coords:      3.775000      1.975000      1.725000, Make: TC, ID: Fourth_Ceiling_Gas_Temperature_R2.006, Quantity: THERMOCOUPLE
   205 Coords:      3.825000      1.975000      1.725000, Make: TC, ID: Fourth_Ceiling_Gas_Temperature_R2.007, Quantity: THERMOCOUPLE
   206 Coords:      3.875000      1.975000      1.725000, Make: TC, ID: Fourth_Ceiling_Gas_Temperature_R2.008, Quantity: THERMOCOUPLE
   207 Coords:      3.725000      2.025000      1.725000, Make: TC, ID: Fourth_Ceiling_Gas_Temperature_R2.009, Quantity: THERMOCOUPLE
   208 Coords:      3.775000      2.025000      1.725000, Make: TC, ID: Fourth_Ceiling_Gas_Temperature_R2.010, Quantity: THERMOCOUPLE
   209 Coords:      3.825000      2.025000      1.725000, Make: TC, ID: Fourth_Ceiling_Gas_Temperature_R2.011, Quantity: THERMOCOUPLE
   210 Coords:      3.875000      2.025000      1.725000, Make: TC, ID: Fourth_Ceiling_Gas_Temperature_R2.012, Quantity: THERMOCOUPLE
   211 Coords:      3.725000      2.075000      1.725000, Make: TC, ID: Fourth_Ceiling_Gas_Temperature_R2.013, Quantity: THERMOCOUPLE
   212 Coords:      3.775000      2.075000      1.725000, Make: TC, ID: Fourth_Ceiling_Gas_Temperature_R2.014, Quantity: THERMOCOUPLE
   213 Coords:      3.825000      2.075000      1.725000, Make: TC, ID: Fourth_Ceiling_Gas_Temperature_R2.015, Quantity: THERMOCOUPLE
   214 Coords:      3.875000      2.075000      1.725000, Make: TC, ID: Fourth_Ceiling_Gas_Temperature_R2.016, Quantity: THERMOCOUPLE
   215 Coords:      3.725000      1.925000      1.775000, Make: TC, ID: Fourth_Ceiling_Gas_Temperature_R2.017, Quantity: THERMOCOUPLE
   216 Coords:      3.775000      1.925000      1.775000, Make: TC, ID: Fourth_Ceiling_Gas_Temperature_R2.018, Quantity: THERMOCOUPLE
   217 Coords:      3.825000      1.925000      1.775000, Make: TC, ID: Fourth_Ceiling_Gas_Temperature_R2.019, Quantity: THERMOCOUPLE
   218 Coords:      3.875000      1.925000      1.775000, Make: TC, ID: Fourth_Ceiling_Gas_Temperature_R2.020, Quantity: THERMOCOUPLE
   219 Coords:      3.725000      1.975000      1.775000, Make: TC, ID: Fourth_Ceiling_Gas_Temperature_R2.021, Quantity: THERMOCOUPLE
   220 Coords:      3.775000      1.975000      1.775000, Make: TC, ID: Fourth_Ceiling_Gas_Temperature_R2.022, Quantity: THERMOCOUPLE
   221 Coords:      3.825000      1.975000      1.775000, Make: TC, ID: Fourth_Ceiling_Gas_Temperature_R2.023, Quantity: THERMOCOUPLE
   222 Coords:      3.875000      1.975000      1.775000, Make: TC, ID: Fourth_Ceiling_Gas_Temperature_R2.024, Quantity: THERMOCOUPLE
   223 Coords:      3.725000      2.025000      1.775000, Make: TC, ID: Fourth_Ceiling_Gas_Temperature_R2.025, Quantity: THERMOCOUPLE
   224 Coords:      3.775000      2.025000      1.775000, Make: TC, ID: Fourth_Ceiling_Gas_Temperature_R2.026, Quantity: THERMOCOUPLE
   225 Coords:      3.825000      2.025000      1.775000, Make: TC, ID: Fourth_Ceiling_Gas_Temperature_R2.027, Quantity: THERMOCOUPLE
   226 Coords:      3.875000      2.025000      1.775000, Make: TC, ID: Fourth_Ceiling_Gas_Temperature_R2.028, Quantity: THERMOCOUPLE
   227 Coords:      3.725000      2.075000      1.775000, Make: TC, ID: Fourth_Ceiling_Gas_Temperature_R2.029, Quantity: THERMOCOUPLE
   228 Coords:      3.775000      2.075000      1.775000, Make: TC, ID: Fourth_Ceiling_Gas_Temperature_R2.030, Quantity: THERMOCOUPLE
   229 Coords:      3.825000      2.075000      1.775000, Make: TC, ID: Fourth_Ceiling_Gas_Temperature_R2.031, Quantity: THERMOCOUPLE
   230 Coords:      3.875000      2.075000      1.775000, Make: TC, ID: Fourth_Ceiling_Gas_Temperature_R2.032, Quantity: THERMOCOUPLE
   231 Coords:      3.725000      1.925000      1.825000, Make: TC, ID: Fourth_Ceiling_Gas_Temperature_R2.033, Quantity: THERMOCOUPLE
   232 Coords:      3.775000      1.925000      1.825000, Make: TC, ID: Fourth_Ceiling_Gas_Temperature_R2.034, Quantity: THERMOCOUPLE
   233 Coords:      3.825000      1.925000      1.825000, Make: TC, ID: Fourth_Ceiling_Gas_Temperature_R2.035, Quantity: THERMOCOUPLE
   234 Coords:      3.875000      1.925000      1.825000, Make: TC, ID: Fourth_Ceiling_Gas_Temperature_R2.036, Quantity: THERMOCOUPLE
   235 Coords:      3.725000      1.975000      1.825000, Make: TC, ID: Fourth_Ceiling_Gas_Temperature_R2.037, Quantity: THERMOCOUPLE
   236 Coords:      3.775000      1.975000      1.825000, Make: TC, ID: Fourth_Ceiling_Gas_Temperature_R2.038, Quantity: THERMOCOUPLE
   237 Coords:      3.825000      1.975000      1.825000, Make: TC, ID: Fourth_Ceiling_Gas_Temperature_R2.039, Quantity: THERMOCOUPLE
   238 Coords:      3.875000      1.975000      1.825000, Make: TC, ID: Fourth_Ceiling_Gas_Temperature_R2.040, Quantity: THERMOCOUPLE
   239 Coords:      3.725000      2.025000      1.825000, Make: TC, ID: Fourth_Ceiling_Gas_Temperature_R2.041, Quantity: THERMOCOUPLE
   240 Coords:      3.775000      2.025000      1.825000, Make: TC, ID: Fourth_Ceiling_Gas_Temperature_R2.042, Quantity: THERMOCOUPLE
   241 Coords:      3.825000      2.025000      1.825000, Make: TC, ID: Fourth_Ceiling_Gas_Temperature_R2.043, Quantity: THERMOCOUPLE
   242 Coords:      3.875000      2.025000      1.825000, Make: TC, ID: Fourth_Ceiling_Gas_Temperature_R2.044, Quantity: THERMOCOUPLE
   243 Coords:      3.725000      2.075000      1.825000, Make: TC, ID: Fourth_Ceiling_Gas_Temperature_R2.045, Quantity: THERMOCOUPLE
   244 Coords:      3.775000      2.075000      1.825000, Make: TC, ID: Fourth_Ceiling_Gas_Temperature_R2.046, Quantity: THERMOCOUPLE
   245 Coords:      3.825000      2.075000      1.825000, Make: TC, ID: Fourth_Ceiling_Gas_Temperature_R2.047, Quantity: THERMOCOUPLE
   246 Coords:      3.875000      2.075000      1.825000, Make: TC, ID: Fourth_Ceiling_Gas_Temperature_R2.048, Quantity: THERMOCOUPLE
   247 Coords:      3.725000      1.925000      1.875000, Make: TC, ID: Fourth_Ceiling_Gas_Temperature_R2.049, Quantity: THERMOCOUPLE
   248 Coords:      3.775000      1.925000      1.875000, Make: TC, ID: Fourth_Ceiling_Gas_Temperature_R2.050, Quantity: THERMOCOUPLE
   249 Coords:      3.825000      1.925000      1.875000, Make: TC, ID: Fourth_Ceiling_Gas_Temperature_R2.051, Quantity: THERMOCOUPLE
   250 Coords:      3.875000      1.925000      1.875000, Make: TC, ID: Fourth_Ceiling_Gas_Temperature_R2.052, Quantity: THERMOCOUPLE
   251 Coords:      3.725000      1.975000      1.875000, Make: TC, ID: Fourth_Ceiling_Gas_Temperature_R2.053, Quantity: THERMOCOUPLE
   252 Coords:      3.775000      1.975000      1.875000, Make: TC, ID: Fourth_Ceiling_Gas_Temperature_R2.054, Quantity: THERMOCOUPLE
   253 Coords:      3.825000      1.975000      1.875000, Make: TC, ID: Fourth_Ceiling_Gas_Temperature_R2.055, Quantity: THERMOCOUPLE
   254 Coords:      3.875000      1.975000      1.875000, Make: TC, ID: Fourth_Ceiling_Gas_Temperature_R2.056, Quantity: THERMOCOUPLE
   255 Coords:      3.725000      2.025000      1.875000, Make: TC, ID: Fourth_Ceiling_Gas_Temperature_R2.057, Quantity: THERMOCOUPLE
   256 Coords:      3.775000      2.025000      1.875000, Make: TC, ID: Fourth_Ceiling_Gas_Temperature_R2.058, Quantity: THERMOCOUPLE
   257 Coords:      3.825000      2.025000      1.875000, Make: TC, ID: Fourth_Ceiling_Gas_Temperature_R2.059, Quantity: THERMOCOUPLE
   258 Coords:      3.875000      2.025000      1.875000, Make: TC, ID: Fourth_Ceiling_Gas_Temperature_R2.060, Quantity: THERMOCOUPLE
   259 Coords:      3.725000      2.075000      1.875000, Make: TC, ID: Fourth_Ceiling_Gas_Temperature_R2.061, Quantity: THERMOCOUPLE
   260 Coords:      3.775000      2.075000      1.875000, Make: TC, ID: Fourth_Ceiling_Gas_Temperature_R2.062, Quantity: THERMOCOUPLE
   261 Coords:      3.825000      2.075000      1.875000, Make: TC, ID: Fourth_Ceiling_Gas_Temperature_R2.063, Quantity: THERMOCOUPLE
   262 Coords:      3.875000      2.075000      1.875000, Make: TC, ID: Fourth_Ceiling_Gas_Temperature_R2.064, Quantity: THERMOCOUPLE
   263 Coords:      3.000000      1.999500      0.500000, Make: null, ID: 0.5_TREE1_TEMPERATURE_THERMOCOUPLE, Quantity: TEMPERATURE
   264 Coords:      3.000000      1.999500      0.500000, Make: null, ID: 0.5_TREE1_THERMOCOUPLE, Quantity: THERMOCOUPLE
   265 Coords:      3.000000      1.999500      0.700000, Make: null, ID: 0.7_TREE1_TEMPERATURE_THERMOCOUPLE, Quantity: TEMPERATURE
   266 Coords:      3.000000      1.999500      0.700000, Make: null, ID: 0.7_TREE1_THERMOCOUPLE, Quantity: THERMOCOUPLE
   267 Coords:      3.000000      1.999500      0.900000, Make: null, ID: 0.9_TREE1_TEMPERATURE_THERMOCOUPLE, Quantity: TEMPERATURE
   268 Coords:      3.000000      1.999500      0.900000, Make: null, ID: 0.9_TREE1_THERMOCOUPLE, Quantity: THERMOCOUPLE
   269 Coords:      3.000000      1.999500      1.200000, Make: null, ID: 1.2_TREE1_TEMPERATURE_THERMOCOUPLE, Quantity: TEMPERATURE
   270 Coords:      3.000000      1.999500      1.200000, Make: null, ID: 1.2_TREE1_THERMOCOUPLE, Quantity: THERMOCOUPLE
   271 Coords:      3.000000      1.999500      1.500000, Make: null, ID: 1.5_TREE1_TEMPERATURE_THERMOCOUPLE, Quantity: TEMPERATURE
   272 Coords:      3.000000      1.999500      1.500000, Make: null, ID: 1.5_TREE1_THERMOCOUPLE, Quantity: THERMOCOUPLE
   273 Coords:      3.800000      1.999500      0.500000, Make: null, ID: 0.5_TREE2_TEMPERATURE_THERMOCOUPLE, Quantity: TEMPERATURE
   274 Coords:      3.800000      1.999500      0.500000, Make: null, ID: 0.5_TREE2_THERMOCOUPLE, Quantity: THERMOCOUPLE
   275 Coords:      3.800000      1.999500      0.700000, Make: null, ID: 0.7_TREE2_TEMPERATURE_THERMOCOUPLE, Quantity: TEMPERATURE
   276 Coords:      3.800000      1.999500      0.700000, Make: null, ID: 0.7_TREE2_THERMOCOUPLE, Quantity: THERMOCOUPLE
   277 Coords:      3.800000      1.999500      0.900000, Make: null, ID: 0.9_TREE2_TEMPERATURE_THERMOCOUPLE, Quantity: TEMPERATURE
   278 Coords:      3.800000      1.999500      0.900000, Make: null, ID: 0.9_TREE2_THERMOCOUPLE, Quantity: THERMOCOUPLE
   279 Coords:      3.800000      1.999500      1.200000, Make: null, ID: 1.2_TREE2_TEMPERATURE_THERMOCOUPLE, Quantity: TEMPERATURE
   280 Coords:      3.800000      1.999500      1.200000, Make: null, ID: 1.2_TREE2_THERMOCOUPLE, Quantity: THERMOCOUPLE
   281 Coords:      3.800000      1.999500      1.500000, Make: null, ID: 1.5_TREE2_TEMPERATURE_THERMOCOUPLE, Quantity: TEMPERATURE
   282 Coords:      3.800000      1.999500      1.500000, Make: null, ID: 1.5_TREE2_THERMOCOUPLE, Quantity: THERMOCOUPLE
   283 Coords:      1.999500      1.999500      1.800000, Make: particle_nozzles, ID: nozzle, Quantity: TIME
   284 Coords:      1.000000      1.000000      1.800000, Make: particle_nozzles, ID: nozzle, Quantity: TIME
   285 Coords:      3.000000      1.000000      1.800000, Make: particle_nozzles, ID: nozzle, Quantity: TIME
   286 Coords:      1.000000      3.000000      1.800000, Make: particle_nozzles, ID: nozzle, Quantity: TIME
   287 Coords:      3.000000      3.000000      1.800000, Make: particle_nozzles, ID: nozzle, Quantity: TIME


 Slice File Information, Mesh     1

   Sampling Interval (s)             0.600

   1 Nodes:  21  21   0  40   0  23, Quantity: TEMPERATURE
   2 Nodes:  21  21   0  40   0  23, Quantity: U-VELOCITY
   3 Nodes:  21  21   0  40   0  23, Quantity: V-VELOCITY
   4 Nodes:  21  21   0  40   0  23, Quantity: W-VELOCITY
   5 Nodes:   0  40  21  21   0  23, Quantity: TEMPERATURE
   6 Nodes:   0  40  21  21   0  23, Quantity: U-VELOCITY
   7 Nodes:   0  40  21  21   0  23, Quantity: V-VELOCITY
   8 Nodes:   0  40  21  21   0  23, Quantity: W-VELOCITY
   9 Nodes:   0  40  40  40   0  23, Quantity: TEMPERATURE
  10 Nodes:   0  40  40  40   0  23, Quantity: U-VELOCITY
  11 Nodes:   0  40  40  40   0  23, Quantity: V-VELOCITY
  12 Nodes:   0  40  40  40   0  23, Quantity: W-VELOCITY
  13 Nodes:  40  40   0  40   0  23, Quantity: TEMPERATURE
  14 Nodes:  40  40   0  40   0  23, Quantity: U-VELOCITY
  15 Nodes:  40  40   0  40   0  23, Quantity: V-VELOCITY
  16 Nodes:  40  40   0  40   0  23, Quantity: W-VELOCITY
  17 Nodes:  20  20   0  40   0  23, Quantity: TEMPERATURE
  18 Nodes:  20  20   0  40   0  23, Quantity: U-VELOCITY
  19 Nodes:  20  20   0  40   0  23, Quantity: V-VELOCITY
  20 Nodes:  20  20   0  40   0  23, Quantity: W-VELOCITY
  21 Nodes:   0  40  20  20   0  23, Quantity: TEMPERATURE
  22 Nodes:   0  40  20  20   0  23, Quantity: U-VELOCITY
  23 Nodes:   0  40  20  20   0  23, Quantity: V-VELOCITY
  24 Nodes:   0  40  20  20   0  23, Quantity: W-VELOCITY
  25 Nodes:   0  40  40  40   0  23, Quantity: TEMPERATURE
  26 Nodes:   0  40  40  40   0  23, Quantity: U-VELOCITY
  27 Nodes:   0  40  40  40   0  23, Quantity: V-VELOCITY
  28 Nodes:   0  40  40  40   0  23, Quantity: W-VELOCITY
  29 Nodes:  40  40   0  40   0  23, Quantity: TEMPERATURE
  30 Nodes:  40  40   0  40   0  23, Quantity: U-VELOCITY
  31 Nodes:  40  40   0  40   0  23, Quantity: V-VELOCITY
  32 Nodes:  40  40   0  40   0  23, Quantity: W-VELOCITY
  33 Nodes:  21  21   0  40   0  23, Quantity: VELOCITY
  34 Nodes:   0  40  21  21   0  23, Quantity: VELOCITY
  35 Nodes:   0  40  40  40   0  23, Quantity: VELOCITY
  36 Nodes:  40  40   0  40   0  23, Quantity: VELOCITY
  37 Nodes:  21  21   0  40   0  23, Quantity: WATER VAPOR MASS FRACTION
  38 Nodes:   0  40  21  21   0  23, Quantity: WATER VAPOR MASS FRACTION
  39 Nodes:   0  40  40  40   0  23, Quantity: WATER VAPOR MASS FRACTION
  40 Nodes:  40  40   0  40   0  23, Quantity: WATER VAPOR MASS FRACTION


 Boundary File Information

   Sampling Interval (s)             1.200

   1 Quantity: water_droplets AMPUA


 Radiation Model Information

   Number of control angles  104
   Time step increment         3
   Angle increment             5
   Theta band N_phi   Solid angle
     1:        4     0.120
     2:       12     0.114
     3:       16     0.127
     4:       20     0.120
     5:       20     0.120
     6:       16     0.127
     7:       12     0.114
     8:        4     0.120
   Using gray gas absorption.
   Mean beam length  0.100 m
 
 

 Run Time Diagnostics

       Time Step       1   July 30, 2021  23:29:29
       Step Size:    0.521E-01 s, Total Time:       0.05 s
       Pressure Iterations:      1
       Maximum Velocity Error:  0.40E-02 on Mesh   1 at (  39  41   4)
       Maximum Pressure Error:  0.84E-05 on Mesh   7 at (  12  23  23)
       ---------------------------------------------------------------
       Mesh    1
       Max CFL number:  0.45E-01 at (  19,  36,   5)
       Max divergence:  0.45E-06 at (   4,  10,   2)
       Min divergence: -0.91E-03 at (  39,  38,   6)
       Max VN number:   0.25E-01 at (  17,   1,  19)
       Mesh    2
       Max CFL number:  0.45E-01 at (  35,  21,   8)
       Max divergence:  0.66E-06 at (  33,   3,   2)
       Min divergence: -0.88E-03 at (   2,  38,   6)
       Max VN number:   0.27E-01 at (   3,  33,   1)
       Mesh    3
       Max CFL number:  0.44E-01 at (  39,  12,  10)
       Max divergence:  0.45E-06 at (   3,  35,  21)
       Min divergence: -0.96E-03 at (  38,   1,   6)
       Max VN number:   0.21E-01 at (  18,  35,   1)
       Mesh    4
       Max CFL number:  0.45E-01 at (   8,  37,  10)
       Max divergence:  0.50E-06 at (  30,  39,   5)
       Min divergence: -0.86E-03 at (   1,   3,   6)
       Max VN number:   0.32E-01 at (  35,  40,  19)
       Mesh    5
       Max CFL number:  0.44E-01 at (   8,   6,  16)
       Max divergence:  0.10E-05 at (   8,  14,  21)
       Min divergence: -0.42E-05 at (  38,  39,   5)
       Max VN number:   0.34E-01 at (  32,  10,  18)
       Mesh    6
       Max CFL number:  0.46E-01 at (  38,  29,  14)
       Max divergence:  0.11E-05 at (  22,  15,  22)
       Min divergence: -0.41E-05 at (   2,  39,   6)
       Max VN number:   0.32E-01 at (  31,  25,  20)
       Mesh    7
       Max CFL number:  0.43E-01 at (   7,  38,   3)
       Max divergence:  0.12E-05 at (   8,  37,  22)
       Min divergence: -0.42E-05 at (  40,   5,   3)
       Max VN number:   0.34E-01 at (   7,  33,  20)
       Mesh    8
       Max CFL number:  0.44E-01 at (  36,  15,   6)
       Max divergence:  0.96E-06 at (  31,   8,  21)
       Min divergence: -0.39E-05 at (   3,   1,   2)
       Max VN number:   0.33E-01 at (  22,  16,  20)
 
       Time Step       2   July 30, 2021  23:29:30
       Step Size:    0.521E-01 s, Total Time:       0.10 s
       Pressure Iterations:      2
       Maximum Velocity Error:  0.13E-01 on Mesh   1 at (  40  41   6)
       Maximum Pressure Error:  0.18E-02 on Mesh   4 at (   2   3   6)
       ---------------------------------------------------------------
       Mesh    1
       Max CFL number:  0.45E-01 at (  19,  36,   5)
       Max divergence:  0.44E+00 at (  38,  38,   6)
       Min divergence: -0.53E-05 at (  39,  40,  20)
       Max VN number:   0.26E-01 at (  17,   1,  19)
       Mesh    2
       Max CFL number:  0.44E-01 at (  35,  21,   8)
       Max divergence:  0.45E+00 at (   2,  38,   6)
       Min divergence: -0.52E-05 at (   2,  38,  22)
       Max VN number:   0.27E-01 at (   3,  33,   1)
       Mesh    3
       Max CFL number:  0.43E-01 at (  39,  12,  10)
       Max divergence:  0.49E+00 at (  38,   3,   6)
       Min divergence: -0.54E-05 at (  40,   2,  19)
       Max VN number:   0.21E-01 at (  18,  35,   1)
       Mesh    4
       Max CFL number:  0.44E-01 at (   8,  37,  10)
       Max divergence:  0.47E+00 at (   3,   3,   6)
       Min divergence: -0.48E-05 at (   3,   1,  22)
       Max VN number:   0.32E-01 at (  35,  40,  19)
       Mesh    5
       Max CFL number:  0.44E-01 at (   8,   6,  16)
       Max divergence:  0.10E-05 at (   8,  14,  21)
       Min divergence: -0.42E-05 at (  38,  39,   5)
       Max VN number:   0.35E-01 at (  38,   6,  17)
       Mesh    6
       Max CFL number:  0.45E-01 at (  38,  29,  14)
       Max divergence:  0.11E-05 at (  22,  15,  22)
       Min divergence: -0.41E-05 at (   2,  39,   6)
       Max VN number:   0.29E-01 at (  22,  21,  22)
       Mesh    7
       Max CFL number:  0.43E-01 at (   7,  38,   3)
       Max divergence:  0.12E-05 at (   8,  37,  22)
       Min divergence: -0.42E-05 at (  40,   5,   3)
       Max VN number:   0.30E-01 at (  18,  23,  19)
       Mesh    8
       Max CFL number:  0.44E-01 at (  36,  15,   6)
       Max divergence:  0.97E-06 at (  31,   8,  21)
       Min divergence: -0.39E-05 at (   3,   1,   2)
       Max VN number:   0.29E-01 at (  38,  18,  19)
 
       Time Step       3   July 30, 2021  23:29:30
       Step Size:    0.521E-01 s, Total Time:       0.16 s
       Pressure Iterations:      1
       Maximum Velocity Error:  0.14E-01 on Mesh   3 at (  41   2   6)
       Maximum Pressure Error:  0.36E+00 on Mesh   4 at (   3   3   6)
       ---------------------------------------------------------------
       Mesh    1
       Max CFL number:  0.60E-01 at (  38,  38,   6)
       Max divergence:  0.60E+00 at (  38,  38,   6)
       Min divergence: -0.42E-05 at (  39,  40,  20)
       Max VN number:   0.25E-01 at (  17,   1,  19)
       Mesh    2
       Max CFL number:  0.59E-01 at (   2,  38,   6)
       Max divergence:  0.55E+00 at (   3,  38,   6)
       Min divergence: -0.35E-05 at (   1,  38,  22)
       Max VN number:   0.27E-01 at (   3,  33,   1)
       Mesh    3
       Max CFL number:  0.66E-01 at (  38,   3,   6)
       Max divergence:  0.70E+00 at (  38,   3,   6)
       Min divergence: -0.38E-05 at (  38,   2,  21)
       Max VN number:   0.21E-01 at (  18,  35,   1)
       Mesh    4
       Max CFL number:  0.59E-01 at (   3,   3,   6)
       Max divergence:  0.60E+00 at (   3,   3,   6)
       Min divergence: -0.30E-05 at (   3,   4,  16)
       Max VN number:   0.31E-01 at (  35,  40,  19)
       Mesh    5
       Max CFL number:  0.44E-01 at (   8,   6,  16)
       Max divergence:  0.10E-05 at (   8,  14,  21)
       Min divergence: -0.38E-05 at (  38,  39,   5)
       Max VN number:   0.36E-01 at (  38,   6,  17)
       Mesh    6
       Max CFL number:  0.45E-01 at (  38,  29,  14)
       Max divergence:  0.11E-05 at (  22,  15,  22)
       Min divergence: -0.26E-05 at (   2,  39,   6)
       Max VN number:   0.29E-01 at (  22,  21,  22)
       Mesh    7
       Max CFL number:  0.43E-01 at (  33,  39,   4)
       Max divergence:  0.12E-05 at (   8,  37,  22)
       Min divergence: -0.30E-05 at (  40,   5,   3)
       Max VN number:   0.30E-01 at (  18,  23,  19)
       Mesh    8
       Max CFL number:  0.44E-01 at (  36,  15,   6)
       Max divergence:  0.96E-06 at (  31,   8,  21)
       Min divergence: -0.30E-05 at (   3,   1,   2)
       Max VN number:   0.29E-01 at (  38,  18,  19)
 
       Time Step       4   July 30, 2021  23:29:30
       Step Size:    0.521E-01 s, Total Time:       0.21 s
       Pressure Iterations:      5
       Maximum Velocity Error:  0.21E-01 on Mesh   1 at (  41  40   6)
       Maximum Pressure Error:  0.42E+01 on Mesh   4 at (   3   3   6)
       ---------------------------------------------------------------
       Mesh    1
       Max CFL number:  0.79E-01 at (  38,  38,   6)
       Max divergence:  0.20E+01 at (  38,  39,   6)
       Min divergence: -0.42E-05 at (  39,  40,  20)
       Max VN number:   0.25E-01 at (  17,   1,  19)
       Mesh    2
       Max CFL number:  0.75E-01 at (   3,  38,   6)
       Max divergence:  0.20E+01 at (   2,  39,   6)
       Min divergence: -0.35E-05 at (   1,  38,  22)
       Max VN number:   0.27E-01 at (   3,  33,   1)
       Mesh    3
       Max CFL number:  0.88E-01 at (  38,   3,   6)
       Max divergence:  0.20E+01 at (  38,   2,   6)
       Min divergence: -0.38E-05 at (  38,   2,  21)
       Max VN number:   0.20E-01 at (  18,  35,   1)
       Mesh    4
       Max CFL number:  0.75E-01 at (   3,   3,   6)
       Max divergence:  0.20E+01 at (   2,   2,   6)
       Min divergence: -0.30E-05 at (   3,   4,  16)
       Max VN number:   0.31E-01 at (  35,  40,  19)
       Mesh    5
       Max CFL number:  0.43E-01 at (   8,   6,  16)
       Max divergence:  0.10E-05 at (   8,  14,  21)
       Min divergence: -0.38E-05 at (  38,  39,   5)
       Max VN number:   0.36E-01 at (  38,   6,  17)
       Mesh    6
       Max CFL number:  0.45E-01 at (  38,  29,  14)
       Max divergence:  0.11E-05 at (  22,  15,  22)
       Min divergence: -0.26E-05 at (   2,  39,   6)
       Max VN number:   0.29E-01 at (  22,  21,  22)
       Mesh    7
       Max CFL number:  0.42E-01 at (  33,  39,   4)
       Max divergence:  0.12E-05 at (   8,  37,  22)
       Min divergence: -0.30E-05 at (  40,   5,   3)
       Max VN number:   0.29E-01 at (  18,  23,  19)
       Mesh    8
       Max CFL number:  0.43E-01 at (  36,  15,   6)
       Max divergence:  0.97E-06 at (  31,   8,  21)
       Min divergence: -0.30E-05 at (   3,   1,   2)
       Max VN number:   0.29E-01 at (  38,  18,  19)
 
       Time Step       5   July 30, 2021  23:29:31
       Step Size:    0.521E-01 s, Total Time:       0.26 s
       Pressure Iterations:      4
       Maximum Velocity Error:  0.18E-01 on Mesh   3 at (  41   1   6)
       Maximum Pressure Error:  0.97E+01 on Mesh   4 at (   3   3   6)
       ---------------------------------------------------------------
       Mesh    1
       Max CFL number:  0.23E+00 at (  38,  38,   6)
       Max divergence:  0.18E+01 at (  38,  38,   6)
       Min divergence: -0.42E-05 at (  39,  40,  20)
       Max VN number:   0.25E-01 at (  17,   1,  19)
       Mesh    2
       Max CFL number:  0.22E+00 at (   2,  38,   6)
       Max divergence:  0.18E+01 at (   3,  38,   6)
       Min divergence: -0.35E-05 at (   1,  38,  22)
       Max VN number:   0.26E-01 at (   3,  33,   1)
       Mesh    3
       Max CFL number:  0.23E+00 at (  38,   3,   6)
       Max divergence:  0.18E+01 at (  38,   3,   6)
       Min divergence: -0.38E-05 at (  38,   2,  21)
       Max VN number:   0.24E-01 at (  39,   2,   6)
       Mesh    4
       Max CFL number:  0.23E+00 at (   3,   3,   6)
       Max divergence:  0.18E+01 at (   3,   3,   6)
       Min divergence: -0.29E-05 at (   1,   3,  20)
       Max VN number:   0.31E-01 at (  35,  40,  19)
       Mesh    5
       Max CFL number:  0.43E-01 at (   8,   6,  16)
       Max divergence:  0.10E-05 at (   8,  14,  21)
       Min divergence: -0.38E-05 at (  38,  39,   5)
       Max VN number:   0.36E-01 at (  38,   6,  17)
       Mesh    6
       Max CFL number:  0.45E-01 at (  38,  29,  14)
       Max divergence:  0.11E-05 at (  22,  15,  22)
       Min divergence: -0.25E-05 at (   2,  39,   6)
       Max VN number:   0.29E-01 at (  22,  21,  22)
       Mesh    7
       Max CFL number:  0.42E-01 at (  33,  39,   4)
       Max divergence:  0.12E-05 at (   8,  37,  22)
       Min divergence: -0.30E-05 at (  40,   5,   3)
       Max VN number:   0.29E-01 at (  18,  23,  19)
       Mesh    8
       Max CFL number:  0.43E-01 at (  36,  15,   6)
       Max divergence:  0.98E-06 at (  31,   8,  21)
       Min divergence: -0.30E-05 at (   3,   1,   2)
       Max VN number:   0.29E-01 at (  38,  18,  19)
 
       Time Step       6   July 30, 2021  23:29:31
       Step Size:    0.521E-01 s, Total Time:       0.31 s
       Pressure Iterations:      5
       Maximum Velocity Error:  0.24E-01 on Mesh   2 at (   0  40   6)
       Maximum Pressure Error:  0.11E+02 on Mesh   3 at (  38   2   6)
       ---------------------------------------------------------------
       Mesh    1
       Max CFL number:  0.22E+00 at (  38,  38,   6)
       Max divergence:  0.38E+01 at (  40,  40,   6)
       Min divergence: -0.23E-05 at (  40,  40,  22)
       Max VN number:   0.25E-01 at (  17,   1,  19)
       Mesh    2
       Max CFL number:  0.22E+00 at (   3,  38,   6)
       Max divergence:  0.39E+01 at (   1,  40,   6)
       Min divergence: -0.27E-05 at (  10,  38,  22)
       Max VN number:   0.26E-01 at (   3,  33,   1)
       Mesh    3
       Max CFL number:  0.23E+00 at (  38,   3,   6)
       Max divergence:  0.37E+01 at (  40,   1,   6)
       Min divergence: -0.21E-05 at (  40,   5,  21)
       Max VN number:   0.27E-01 at (  38,   3,   7)
       Mesh    4
       Max CFL number:  0.22E+00 at (   3,   3,   6)
       Max divergence:  0.38E+01 at (   1,   1,   6)
       Min divergence: -0.20E-05 at (   7,  17,  18)
       Max VN number:   0.31E-01 at (  35,  40,  19)
       Mesh    5
       Max CFL number:  0.43E-01 at (   8,   6,  16)
       Max divergence:  0.10E-05 at (   8,  14,  21)
       Min divergence: -0.27E-05 at (  38,  39,   5)
       Max VN number:   0.36E-01 at (  38,   6,  17)
       Mesh    6
       Max CFL number:  0.44E-01 at (  38,  29,  14)
       Max divergence:  0.11E-05 at (  22,  15,  22)
       Min divergence: -0.22E-05 at (  12,  38,   2)
       Max VN number:   0.29E-01 at (  22,  21,  22)
       Mesh    7
       Max CFL number:  0.42E-01 at (  33,  39,   4)
       Max divergence:  0.12E-05 at (   8,  37,  22)
       Min divergence: -0.21E-05 at (  40,   5,   3)
       Max VN number:   0.29E-01 at (  18,  23,  19)
       Mesh    8
       Max CFL number:  0.43E-01 at (  36,  15,   6)
       Max divergence:  0.98E-06 at (  31,   8,  21)
       Min divergence: -0.25E-05 at (   3,   3,   8)
       Max VN number:   0.29E-01 at (  38,  18,  19)
 
       Time Step       7   July 30, 2021  23:29:32
       Step Size:    0.521E-01 s, Total Time:       0.36 s
       Pressure Iterations:      6
       Maximum Velocity Error:  0.24E-01 on Mesh   3 at (  40   0   6)
       Maximum Pressure Error:  0.20E+02 on Mesh   3 at (  38   1   6)
       ---------------------------------------------------------------
       Mesh    1
       Max CFL number:  0.40E+00 at (  38,  40,   6)
       Max divergence:  0.23E+01 at (  38,  38,   6)
       Min divergence: -0.22E-05 at (  40,  40,  22)
       Max VN number:   0.47E-01 at (  40,  40,   6)
       Mesh    2
       Max CFL number:  0.40E+00 at (   2,  40,   6)
       Max divergence:  0.23E+01 at (   3,  38,   6)
       Min divergence: -0.27E-05 at (  10,  38,  22)
       Max VN number:   0.46E-01 at (   1,  40,   6)
       Mesh    3
       Max CFL number:  0.41E+00 at (  38,   1,   6)
       Max divergence:  0.23E+01 at (  38,   3,   6)
       Min divergence: -0.20E-05 at (  40,   5,  21)
       Max VN number:   0.48E-01 at (  40,   1,   6)
       Mesh    4
       Max CFL number:  0.39E+00 at (   3,   1,   6)
       Max divergence:  0.23E+01 at (   3,   3,   6)
       Min divergence: -0.20E-05 at (   7,  17,  18)
       Max VN number:   0.47E-01 at (   1,   1,   6)
       Mesh    5
       Max CFL number:  0.42E-01 at (   8,   6,  16)
       Max divergence:  0.10E-05 at (   8,  14,  21)
       Min divergence: -0.27E-05 at (  38,  39,   5)
       Max VN number:   0.36E-01 at (  38,   6,  17)
       Mesh    6
       Max CFL number:  0.44E-01 at (  38,  29,  14)
       Max divergence:  0.11E-05 at (  22,  15,  22)
       Min divergence: -0.22E-05 at (  12,  38,   2)
       Max VN number:   0.29E-01 at (  22,  21,  22)
       Mesh    7
       Max CFL number:  0.42E-01 at (  33,  39,   4)
       Max divergence:  0.12E-05 at (   8,  37,  22)
       Min divergence: -0.21E-05 at (  40,   5,   3)
       Max VN number:   0.29E-01 at (  18,  23,  19)
       Mesh    8
       Max CFL number:  0.42E-01 at (  36,  15,   6)
       Max divergence:  0.98E-06 at (  31,   8,  21)
       Min divergence: -0.25E-05 at (   3,   3,   8)
       Max VN number:   0.29E-01 at (  38,  18,  19)
 
       Time Step       8   July 30, 2021  23:29:32
       Step Size:    0.521E-01 s, Total Time:       0.42 s
       Pressure Iterations:      4
       Maximum Velocity Error:  0.19E-01 on Mesh   3 at (  40   0   6)
       Maximum Pressure Error:  0.78E+01 on Mesh   1 at (  39  39   6)
       ---------------------------------------------------------------
       Mesh    1
       Max CFL number:  0.36E+00 at (  38,  38,   7)
       Max divergence:  0.38E+01 at (  40,  40,   6)
       Min divergence: -0.21E-05 at (  40,  40,  22)
       Max VN number:   0.61E-01 at (  38,  38,   7)
       Mesh    2
       Max CFL number:  0.34E+00 at (   3,  38,   7)
       Max divergence:  0.38E+01 at (   1,  40,   6)
       Min divergence: -0.26E-05 at (  10,  38,  22)
       Max VN number:   0.55E-01 at (   3,  38,   7)
       Mesh    3
       Max CFL number:  0.36E+00 at (  38,   3,   6)
       Max divergence:  0.38E+01 at (  40,   1,   6)
       Min divergence: -0.19E-05 at (   9,   2,  20)
       Max VN number:   0.64E-01 at (  38,   3,   7)
       Mesh    4
       Max CFL number:  0.36E+00 at (   3,   3,   6)
       Max divergence:  0.38E+01 at (   1,   1,   6)
       Min divergence: -0.20E-05 at (   4,  27,  21)
       Max VN number:   0.66E-01 at (   3,   3,   7)
       Mesh    5
       Max CFL number:  0.42E-01 at (   8,   6,  16)
       Max divergence:  0.10E-05 at (   8,  14,  21)
       Min divergence: -0.26E-05 at (  38,  39,   5)
       Max VN number:   0.35E-01 at (  38,   6,  17)
       Mesh    6
       Max CFL number:  0.44E-01 at (  38,  29,  14)
       Max divergence:  0.11E-05 at (  22,  15,  22)
       Min divergence: -0.22E-05 at (  12,  38,   2)
       Max VN number:   0.29E-01 at (  22,  21,  22)
       Mesh    7
       Max CFL number:  0.42E-01 at (  33,  39,   4)
       Max divergence:  0.12E-05 at (   8,  37,  22)
       Min divergence: -0.21E-05 at (  40,   5,   3)
       Max VN number:   0.29E-01 at (  15,  21,  21)
       Mesh    8
       Max CFL number:  0.42E-01 at (  36,  15,   6)
       Max divergence:  0.98E-06 at (  31,   8,  21)
       Min divergence: -0.25E-05 at (   3,   3,   8)
       Max VN number:   0.29E-01 at (  38,  18,  19)
 
       Time Step       9   July 30, 2021  23:29:32
       Step Size:    0.521E-01 s, Total Time:       0.47 s
       Pressure Iterations:      5
       Maximum Velocity Error:  0.20E-01 on Mesh   3 at (  41   1   6)
       Maximum Pressure Error:  0.21E+02 on Mesh   4 at (   2   3   6)
       ---------------------------------------------------------------
       Mesh    1
       Max CFL number:  0.51E+00 at (  38,  38,   6)
       Max divergence:  0.25E+01 at (  40,  38,   6)
       Min divergence: -0.15E-05 at (  24,  38,  22)
       Max VN number:   0.97E-01 at (  38,  38,   7)
       Mesh    2
       Max CFL number:  0.50E+00 at (   3,  38,   6)
       Max divergence:  0.24E+01 at (   3,  38,   6)
       Min divergence: -0.17E-05 at (  10,  22,  21)
       Max VN number:   0.90E-01 at (   3,  38,   7)
       Mesh    3
       Max CFL number:  0.53E+00 at (  38,   3,   6)
       Max divergence:  0.24E+01 at (  38,   3,   6)
       Min divergence: -0.16E-05 at (   9,   2,  20)
       Max VN number:   0.10E+00 at (  38,   3,   7)
       Mesh    4
       Max CFL number:  0.52E+00 at (   3,   3,   6)
       Max divergence:  0.24E+01 at (   3,   3,   6)
       Min divergence: -0.14E-05 at (   4,  27,  21)
       Max VN number:   0.10E+00 at (   3,   3,   7)
       Mesh    5
       Max CFL number:  0.42E-01 at (   8,   6,  16)
       Max divergence:  0.10E-05 at (   8,  14,  21)
       Min divergence: -0.20E-05 at (  38,  39,   5)
       Max VN number:   0.35E-01 at (  38,   6,  17)
       Mesh    6
       Max CFL number:  0.43E-01 at (  38,  29,  14)
       Max divergence:  0.11E-05 at (  22,  15,  22)
       Min divergence: -0.17E-05 at (   3,  38,  16)
       Max VN number:   0.28E-01 at (  22,  21,  22)
       Mesh    7
       Max CFL number:  0.42E-01 at (  33,  39,   4)
       Max divergence:  0.12E-05 at (   8,  37,  22)
       Min divergence: -0.17E-05 at (  32,  11,   4)
       Max VN number:   0.29E-01 at (  15,  21,  21)
       Mesh    8
       Max CFL number:  0.42E-01 at (  36,  15,   6)
       Max divergence:  0.99E-06 at (  31,   8,  21)
       Min divergence: -0.19E-05 at (   3,   3,   8)
       Max VN number:   0.29E-01 at (  38,  18,  19)
 
       Time Step      10   July 30, 2021  23:29:33
       Step Size:    0.521E-01 s, Total Time:       0.52 s
       Pressure Iterations:      2
       Maximum Velocity Error:  0.21E-01 on Mesh   2 at (   1  41   7)
       Maximum Pressure Error:  0.93E+01 on Mesh   4 at (   3   3   7)
       ---------------------------------------------------------------
       Mesh    1
       Max CFL number:  0.79E+00 at (  38,  38,   6)
       Max divergence:  0.39E+01 at (  40,  40,   6)
       Min divergence: -0.15E-05 at (  24,  38,  22)
       Max VN number:   0.15E+00 at (  38,  38,   7)
       Mesh    2
       Max CFL number:  0.77E+00 at (   3,  38,   6)
       Max divergence:  0.39E+01 at (   1,  40,   6)
       Min divergence: -0.17E-05 at (  10,  22,  21)
       Max VN number:   0.14E+00 at (   3,  38,   7)
       Mesh    3
       Max CFL number:  0.80E+00 at (  38,   3,   6)
       Max divergence:  0.39E+01 at (  40,   1,   6)
[...]
       Mesh    6
       Max CFL number:  0.71E+00 at (  22,  21,  13)
       Max divergence:  0.22E+00 at (   2,  40,   9)
       Min divergence: -0.17E+01 at (  20,  22,  13)
       Max VN number:   0.19E+00 at (  22,  21,  12)
       No. of Lagrangian Particles:         20948
       Mesh    7
       Max CFL number:  0.75E+00 at (  40,   2,  12)
       Max divergence:  0.67E+00 at (  40,   2,  11)
       Min divergence: -0.18E+01 at (  36,   1,   1)
       Max VN number:   0.23E+00 at (  40,   2,  12)
       No. of Lagrangian Particles:         17686
       Mesh    8
       Max CFL number:  0.64E+00 at (  20,  20,  13)
       Max divergence:  0.45E+00 at (   2,   3,  10)
       Min divergence: -0.15E+01 at (   3,   3,   8)
       Max VN number:   0.18E+00 at (  20,  19,  12)
       No. of Lagrangian Particles:         19295
 
       Time Step  131100   July 31, 2021  17:44:18
       Step Size:    0.371E-02 s, Total Time:     598.05 s
       Pressure Iterations:      5
       Maximum Velocity Error:  0.24E-01 on Mesh   7 at (  41   2  13)
       Maximum Pressure Error:  0.39E+03 on Mesh   3 at (  39   3   6)
       ---------------------------------------------------------------
       Mesh    1
       Max CFL number:  0.30E+00 at (  40,  39,  23)
       Max divergence:  0.66E+01 at (  39,  39,   6)
       Min divergence: -0.16E+02 at (  40,  39,   9)
       Max VN number:   0.16E+00 at (  14,  26,   1)
       No. of Lagrangian Particles:         33477
       Mesh    2
       Max CFL number:  0.38E+00 at (  27,  24,  21)
       Max divergence:  0.65E+01 at (   2,  40,   6)
       Min divergence: -0.49E+01 at (   1,  38,  13)
       Max VN number:   0.11E+00 at (  20,   3,   1)
       No. of Lagrangian Particles:         34587
       Mesh    3
       Max CFL number:  0.35E+00 at (  25,  19,  22)
       Max divergence:  0.74E+01 at (  39,   1,   6)
       Min divergence: -0.16E+01 at (  38,   1,   8)
       Max VN number:   0.14E+00 at (  36,  22,   1)
       No. of Lagrangian Particles:         29792
       Mesh    4
       Max CFL number:  0.30E+00 at (  22,  15,  22)
       Max divergence:  0.75E+01 at (   3,   2,   6)
       Min divergence: -0.64E+01 at (   2,   2,   8)
       Max VN number:   0.15E+00 at (  27,   1,   1)
       No. of Lagrangian Particles:         32308
       Mesh    5
       Max CFL number:  0.68E+00 at (  19,  20,  13)
       Max divergence:  0.36E+00 at (  40,  38,   1)
       Min divergence: -0.18E+01 at (  37,  37,   1)
       Max VN number:   0.19E+00 at (  40,  39,  12)
       No. of Lagrangian Particles:         20644
       Mesh    6
       Max CFL number:  0.77E+00 at (  22,  21,  12)
       Max divergence:  0.43E+00 at (   1,  38,   2)
       Min divergence: -0.13E+01 at (   1,  38,   1)
       Max VN number:   0.20E+00 at (  20,  19,  12)
       No. of Lagrangian Particles:         20993
       Mesh    7
       Max CFL number:  0.76E+00 at (  20,  21,  12)
       Max divergence:  0.71E+00 at (  32,   3,  10)
       Min divergence: -0.16E+01 at (  35,   5,   7)
       Max VN number:   0.20E+00 at (  40,   2,  12)
       No. of Lagrangian Particles:         17630
       Mesh    8
       Max CFL number:  0.80E+00 at (  22,  21,  12)
       Max divergence:  0.29E+00 at (   1,   8,   8)
       Min divergence: -0.17E+01 at (   1,   2,  12)
       Max VN number:   0.24E+00 at (   1,   1,  12)
       No. of Lagrangian Particles:         19409
 
       Time Step  131200   July 31, 2021  17:45:16
       Step Size:    0.348E-02 s, Total Time:     598.40 s
       Pressure Iterations:      6
       Maximum Velocity Error:  0.13E-01 on Mesh   6 at (   1  41  12)
       Maximum Pressure Error:  0.66E+03 on Mesh   2 at (   1  38   6)
       ---------------------------------------------------------------
       Mesh    1
       Max CFL number:  0.28E+00 at (  17,  17,  23)
       Max divergence:  0.63E+01 at (  38,  39,   6)
       Min divergence: -0.51E+01 at (  40,  40,  10)
       Max VN number:   0.18E+00 at (   2,  17,   1)
       No. of Lagrangian Particles:         33585
       Mesh    2
       Max CFL number:  0.31E+00 at (  21,  15,  23)
       Max divergence:  0.66E+01 at (   2,  39,   6)
       Min divergence: -0.68E+01 at (   2,  40,  10)
       Max VN number:   0.15E+00 at (  21,   2,   1)
       No. of Lagrangian Particles:         34806
       Mesh    3
       Max CFL number:  0.27E+00 at (  15,  20,  20)
       Max divergence:  0.61E+01 at (  38,   1,   6)
       Min divergence: -0.24E+01 at (  38,   1,   8)
       Max VN number:   0.13E+00 at (  20,  39,   1)
       No. of Lagrangian Particles:         29498
       Mesh    4
       Max CFL number:  0.31E+00 at (   1,   1,  15)
       Max divergence:  0.68E+01 at (   3,   1,   6)
       Min divergence: -0.31E+01 at (   3,   1,  12)
       Max VN number:   0.13E+00 at (  38,  13,   1)
       No. of Lagrangian Particles:         32175
       Mesh    5
       Max CFL number:  0.87E+00 at (  21,  20,  13)
       Max divergence:  0.35E+00 at (  38,  35,   4)
       Min divergence: -0.13E+01 at (  33,  38,   6)
       Max VN number:   0.18E+00 at (  40,  40,  12)
       No. of Lagrangian Particles:         20679
       Mesh    6
       Max CFL number:  0.70E+00 at (  21,  20,  13)
       Max divergence:  0.27E+00 at (   2,  35,   7)
       Min divergence: -0.12E+01 at (  19,  21,  13)
       Max VN number:   0.20E+00 at (   1,  40,  11)
       No. of Lagrangian Particles:         20871
       Mesh    7
       Max CFL number:  0.68E+00 at (  20,  21,  13)
       Max divergence:  0.38E+00 at (  31,   9,  11)
       Min divergence: -0.12E+01 at (  35,   3,   6)
       Max VN number:   0.23E+00 at (  40,   1,  12)
       No. of Lagrangian Particles:         17744
       Mesh    8
       Max CFL number:  0.75E+00 at (  20,  20,  13)
       Max divergence:  0.25E+00 at (   2,   2,   8)
       Min divergence: -0.97E+00 at (  21,  22,  12)
       Max VN number:   0.16E+00 at (  22,  20,  12)
       No. of Lagrangian Particles:         19547
 
       Time Step  131300   July 31, 2021  17:46:14
       Step Size:    0.370E-02 s, Total Time:     598.75 s
       Pressure Iterations:      5
       Maximum Velocity Error:  0.22E-01 on Mesh   7 at (  41   2  13)
       Maximum Pressure Error:  0.50E+03 on Mesh   4 at (   1   2   6)
       ---------------------------------------------------------------
       Mesh    1
       Max CFL number:  0.33E+00 at (  38,  38,  20)
       Max divergence:  0.59E+01 at (  39,  40,   6)
       Min divergence: -0.33E+01 at (  39,  39,  12)
       Max VN number:   0.15E+00 at (   5,  26,   1)
       No. of Lagrangian Particles:         33368
       Mesh    2
       Max CFL number:  0.37E+00 at (  28,  21,  22)
       Max divergence:  0.78E+01 at (   3,  40,   6)
       Min divergence: -0.44E+01 at (   1,  40,  10)
       Max VN number:   0.20E+00 at (   8,   1,   1)
       No. of Lagrangian Particles:         35199
       Mesh    3
       Max CFL number:  0.31E+00 at (  23,  16,  22)
       Max divergence:  0.77E+01 at (  39,   1,   6)
       Min divergence: -0.21E+01 at (  39,   1,   8)
       Max VN number:   0.18E+00 at (  39,  23,   1)
       No. of Lagrangian Particles:         29496
       Mesh    4
       Max CFL number:  0.31E+00 at (  15,  27,  19)
       Max divergence:  0.92E+01 at (   1,   2,   6)
       Min divergence: -0.35E+01 at (   2,   1,   7)
       Max VN number:   0.19E+00 at (  40,  25,   2)
       No. of Lagrangian Particles:         32138
       Mesh    5
       Max CFL number:  0.77E+00 at (  21,  19,  12)
       Max divergence:  0.49E+00 at (  40,  40,   7)
       Min divergence: -0.13E+01 at (  22,  20,  12)
       Max VN number:   0.21E+00 at (  20,  20,  11)
       No. of Lagrangian Particles:         20788
       Mesh    6
       Max CFL number:  0.94E+00 at (   1,  39,  12)
       Max divergence:  0.41E+00 at (   7,  31,   9)
       Min divergence: -0.20E+01 at (  21,  19,  12)
       Max VN number:   0.24E+00 at (   1,  39,  12)
       No. of Lagrangian Particles:         20573
       Mesh    7
       Max CFL number:  0.75E+00 at (  19,  21,  12)
       Max divergence:  0.41E+00 at (  28,  14,   3)
       Min divergence: -0.98E+00 at (  39,   1,  12)
       Max VN number:   0.21E+00 at (  19,  21,  12)
       No. of Lagrangian Particles:         17738
       Mesh    8
       Max CFL number:  0.74E+00 at (  22,  21,  12)
       Max divergence:  0.31E+00 at (   2,   4,   6)
       Min divergence: -0.10E+01 at (   3,   1,  12)
       Max VN number:   0.25E+00 at (   1,   1,  12)
       No. of Lagrangian Particles:         19669
 
       Time Step  131400   July 31, 2021  17:47:13
       Step Size:    0.361E-02 s, Total Time:     599.10 s
       Pressure Iterations:      6
       Maximum Velocity Error:  0.16E-01 on Mesh   5 at (  41  40  12)
       Maximum Pressure Error:  0.61E+03 on Mesh   4 at (   3   3   6)
       ---------------------------------------------------------------
       Mesh    1
       Max CFL number:  0.31E+00 at (  17,  15,  16)
       Max divergence:  0.65E+01 at (  39,  40,   6)
       Min divergence: -0.15E+02 at (  40,  40,   9)
       Max VN number:   0.11E+00 at (   5,  24,   1)
       No. of Lagrangian Particles:         33151
       Mesh    2
       Max CFL number:  0.33E+00 at (  25,  25,  23)
       Max divergence:  0.81E+01 at (   2,  39,   6)
       Min divergence: -0.52E+01 at (   3,  40,   9)
       Max VN number:   0.22E+00 at (  13,   1,   2)
       No. of Lagrangian Particles:         35066
       Mesh    3
       Max CFL number:  0.29E+00 at (  17,  24,  15)
       Max divergence:  0.66E+01 at (  39,   1,   6)
       Min divergence: -0.24E+01 at (  40,   2,   9)
       Max VN number:   0.16E+00 at (  35,  37,   1)
       No. of Lagrangian Particles:         29625
       Mesh    4
       Max CFL number:  0.28E+00 at (  17,  27,  19)
       Max divergence:  0.68E+01 at (   3,   2,   6)
       Min divergence: -0.50E+01 at (   1,   1,  13)
       Max VN number:   0.12E+00 at (  17,   3,   1)
       No. of Lagrangian Particles:         32297
       Mesh    5
       Max CFL number:  0.68E+00 at (  22,  20,  12)
       Max divergence:  0.48E+00 at (  38,  38,   3)
       Min divergence: -0.12E+01 at (  39,  40,   3)
       Max VN number:   0.17E+00 at (  21,  20,  11)
       No. of Lagrangian Particles:         20792
       Mesh    6
       Max CFL number:  0.64E+00 at (  20,  21,  12)
       Max divergence:  0.35E+00 at (  11,  29,  14)
       Min divergence: -0.14E+01 at (  20,  22,  13)
       Max VN number:   0.16E+00 at (  21,  21,  11)
       No. of Lagrangian Particles:         20763
       Mesh    7
       Max CFL number:  0.84E+00 at (  40,   1,  13)
       Max divergence:  0.18E+00 at (  37,   4,   3)
       Min divergence: -0.14E+01 at (  39,   1,  12)
       Max VN number:   0.23E+00 at (  20,  22,  12)
       No. of Lagrangian Particles:         17724
       Mesh    8
       Max CFL number:  0.73E+00 at (  20,  22,  13)
       Max divergence:  0.28E+00 at (   2,   1,  12)
       Min divergence: -0.16E+01 at (   2,   1,  13)
       Max VN number:   0.24E+00 at (   1,   1,  12)
       No. of Lagrangian Particles:         19516
 
       Time Step  131500   July 31, 2021  17:48:11
       Step Size:    0.364E-02 s, Total Time:     599.44 s
       Pressure Iterations:      5
       Maximum Velocity Error:  0.22E-01 on Mesh   7 at (  39   0  13)
       Maximum Pressure Error:  0.15E+04 on Mesh   1 at (  39  39   6)
       ---------------------------------------------------------------
       Mesh    1
       Max CFL number:  0.31E+00 at (  25,  17,  23)
       Max divergence:  0.77E+01 at (  38,  38,   6)
       Min divergence: -0.53E+01 at (  39,  39,   8)
       Max VN number:   0.12E+00 at (   4,  26,   1)
       No. of Lagrangian Particles:         32992
       Mesh    2
       Max CFL number:  0.36E+00 at (   3,  39,  17)
       Max divergence:  0.71E+01 at (   2,  40,   6)
       Min divergence: -0.37E+01 at (   3,  39,  19)
       Max VN number:   0.17E+00 at (  22,   1,   3)
       No. of Lagrangian Particles:         34776
       Mesh    3
       Max CFL number:  0.32E+00 at (  40,   7,  23)
       Max divergence:  0.64E+01 at (  39,   2,   6)
       Min divergence: -0.32E+01 at (  39,   1,   8)
       Max VN number:   0.16E+00 at (  21,  39,   1)
       No. of Lagrangian Particles:         30018
       Mesh    4
       Max CFL number:  0.32E+00 at (  18,  18,  23)
       Max divergence:  0.67E+01 at (   3,   1,   6)
       Min divergence: -0.23E+01 at (   1,   1,  16)
       Max VN number:   0.14E+00 at (  32,   8,   1)
       No. of Lagrangian Particles:         32455
       Mesh    5
       Max CFL number:  0.71E+00 at (  20,  21,  13)
       Max divergence:  0.51E+00 at (  40,  39,   4)
       Min divergence: -0.12E+01 at (  39,  40,  12)
       Max VN number:   0.16E+00 at (  21,  22,  12)
       No. of Lagrangian Particles:         20798
       Mesh    6
       Max CFL number:  0.94E+00 at (  21,  21,  13)
       Max divergence:  0.23E+00 at (   4,  40,  10)
       Min divergence: -0.13E+01 at (  22,  20,  12)
       Max VN number:   0.21E+00 at (   1,  40,  11)
       No. of Lagrangian Particles:         20826
       Mesh    7
       Max CFL number:  0.81E+00 at (  22,  21,  12)
       Max divergence:  0.22E+00 at (  25,   6,   3)
       Min divergence: -0.14E+01 at (  39,   1,  13)
       Max VN number:   0.24E+00 at (  22,  21,  12)
       No. of Lagrangian Particles:         17469
       Mesh    8
       Max CFL number:  0.78E+00 at (  21,  20,  12)
       Max divergence:  0.16E+00 at (   3,   3,   3)
       Min divergence: -0.18E+01 at (  19,  22,  13)
       Max VN number:   0.25E+00 at (  22,  20,  12)
       No. of Lagrangian Particles:         19605
 
       Time Step  131600   July 31, 2021  17:49:08
       Step Size:    0.350E-02 s, Total Time:     599.79 s
       Pressure Iterations:      4
       Maximum Velocity Error:  0.17E-01 on Mesh   5 at (  41  39  13)
       Maximum Pressure Error:  0.41E+03 on Mesh   4 at (   1   1   5)
       ---------------------------------------------------------------
       Mesh    1
       Max CFL number:  0.30E+00 at (  21,  15,  21)
       Max divergence:  0.71E+01 at (  39,  38,   6)
       Min divergence: -0.33E+01 at (  40,  39,  11)
       Max VN number:   0.87E-01 at (  40,  39,   1)
       No. of Lagrangian Particles:         32966
       Mesh    2
       Max CFL number:  0.33E+00 at (  27,  21,  20)
       Max divergence:  0.82E+01 at (   2,  40,   6)
       Min divergence: -0.40E+01 at (   1,  39,  10)
       Max VN number:   0.21E+00 at (  24,   3,   1)
       No. of Lagrangian Particles:         34220
       Mesh    3
       Max CFL number:  0.31E+00 at (  16,  25,  23)
       Max divergence:  0.59E+01 at (  40,   1,   6)
       Min divergence: -0.46E+01 at (  40,   2,   8)
       Max VN number:   0.12E+00 at (   2,  38,   1)
       No. of Lagrangian Particles:         30190
       Mesh    4
       Max CFL number:  0.30E+00 at (  28,  21,  22)
       Max divergence:  0.86E+01 at (   3,   1,   6)
       Min divergence: -0.23E+01 at (   1,   1,  18)
       Max VN number:   0.13E+00 at (   2,  21,   1)
       No. of Lagrangian Particles:         32651
       Mesh    5
       Max CFL number:  0.87E+00 at (  20,  19,  12)
       Max divergence:  0.32E+00 at (  32,  28,   6)
       Min divergence: -0.14E+01 at (  39,  40,  12)
       Max VN number:   0.16E+00 at (  20,  19,  12)
       No. of Lagrangian Particles:         20671
       Mesh    6
       Max CFL number:  0.91E+00 at (  21,  22,  12)
       Max divergence:  0.54E+00 at (   5,  38,   1)
       Min divergence: -0.21E+01 at (   4,  38,   2)
       Max VN number:   0.22E+00 at (  21,  20,  11)
       No. of Lagrangian Particles:         20905
       Mesh    7
       Max CFL number:  0.85E+00 at (  22,  21,  12)
       Max divergence:  0.16E+00 at (  31,   2,   1)
       Min divergence: -0.88E+00 at (  23,  21,  12)
       Max VN number:   0.31E+00 at (  22,  21,  12)
       No. of Lagrangian Particles:         17487
       Mesh    8
       Max CFL number:  0.82E+00 at (  20,  20,  12)
       Max divergence:  0.43E+00 at (   2,   2,  12)
       Min divergence: -0.13E+01 at (   1,   2,  12)
       Max VN number:   0.23E+00 at (  20,  22,  12)
       No. of Lagrangian Particles:         19754
 
       Time Step  131662   July 31, 2021  17:49:44
       Step Size:    0.991E-03 s, Total Time:     600.00 s
       Pressure Iterations:      5
       Maximum Velocity Error:  0.17E-01 on Mesh   5 at (  40  41  13)
       Maximum Pressure Error:  0.14E+04 on Mesh   2 at (   3  40   7)
       ---------------------------------------------------------------
       Mesh    1
       Max CFL number:  0.10E+00 at (  40,  39,  14)
       Max divergence:  0.70E+01 at (  39,  39,   6)
       Min divergence: -0.52E+01 at (  40,  38,  17)
       Max VN number:   0.40E-01 at (  10,  29,   1)
       No. of Lagrangian Particles:         32814
       Mesh    2
       Max CFL number:  0.10E+00 at (   1,  39,  14)
       Max divergence:  0.66E+01 at (   1,  38,   6)
       Min divergence: -0.14E+02 at (   2,  40,   7)
       Max VN number:   0.40E-01 at (  33,   1,   2)
       No. of Lagrangian Particles:         34162
       Mesh    3
       Max CFL number:  0.81E-01 at (  25,  21,  23)
       Max divergence:  0.65E+01 at (  39,   1,   6)
       Min divergence: -0.25E+01 at (  39,   1,   7)
       Max VN number:   0.37E-01 at (  40,  23,   1)
       No. of Lagrangian Particles:         30268
       Mesh    4
       Max CFL number:  0.10E+00 at (  15,  23,  22)
       Max divergence:  0.97E+01 at (   1,   1,   6)
       Min divergence: -0.41E+01 at (   1,   1,  10)
       Max VN number:   0.36E-01 at (  24,   3,   1)
       No. of Lagrangian Particles:         33051
       Mesh    5
       Max CFL number:  0.18E+00 at (  21,  20,  13)
       Max divergence:  0.62E+00 at (  40,  37,   1)
       Min divergence: -0.44E+01 at (  40,  40,  13)
       Max VN number:   0.52E-01 at (  19,  20,  12)
       No. of Lagrangian Particles:         20557
       Mesh    6
       Max CFL number:  0.21E+00 at (  20,  20,  13)
       Max divergence:  0.45E+00 at (   7,  32,   7)
       Min divergence: -0.32E+01 at (  21,  20,  13)
       Max VN number:   0.54E-01 at (  21,  21,  11)
       No. of Lagrangian Particles:         20931
       Mesh    7
       Max CFL number:  0.22E+00 at (  21,  21,  12)
       Max divergence:  0.28E+00 at (  37,   2,   1)
       Min divergence: -0.28E+01 at (  39,   1,  13)
       Max VN number:   0.54E-01 at (  22,  20,  12)
       No. of Lagrangian Particles:         17452
       Mesh    8
       Max CFL number:  0.23E+00 at (  22,  20,  13)
       Max divergence:  0.36E+00 at (   1,   1,   1)
       Min divergence: -0.18E+01 at (   1,   1,  13)
       Max VN number:   0.59E-01 at (  21,  20,  11)
       No. of Lagrangian Particles:         19750
 


 DEVICE Activation Times

 283  nozzle                                                         300.0 s
 284  nozzle                                                         300.0 s
 285  nozzle                                                         300.0 s
 286  nozzle                                                         300.0 s
 287  nozzle                                                         300.0 s


 Time Stepping Wall Clock Time (s):    66016.691
 Total Elapsed Wall Clock Time (s):    66025.035

STOP: FDS completed successfully (CHID: Case1_Methanol_22kW)
