
 Fire Dynamics Simulator

 Current Date     : October  8, 2021  09:17:21
 Revision         : FDS6.7.6-618-g15afdd1-HEAD
 Revision Date    : Mon Aug 30 13:21:32 2021 -0400
 Compiler         : Intel ifort 19.1.3.304
 Compilation Date : Sep 02, 2021 17:53:46

 MPI Enabled;    Number of MPI Processes:      64
 OpenMP Enabled; Number of OpenMP Threads:      1

 MPI version: 3.1
 MPI library version: Intel(R) MPI Library 2019 Update 9 for Linux* OS


 Job TITLE        : Case2_Methanol_33kw
 Job ID string    : Case2_Methanol_33kw


 Miscellaneous Parameters

   Simulation Start Time (s)          0.0
   Simulation End Time (s)          400.0
   LES Calculation
   Eddy Viscosity:           Deardorff Model (C_DEARDORFF = 0.10)
   Near-wall Eddy Viscosity: WALE Model (C_WALE = 0.60)
   Turbulent Prandtl Number:         0.50
   Turbulent Schmidt Number:         0.50
   Background Pressure (Pa):    101325.00
   Ambient Temperature (C):         27.00


 Mass Fraction Transformation Matrix to Convert Species Mixtures (Columns) to Primitive Species (Rows)

                         AIR       METHANOL  PRODUCTS  WATER VA
   METHANOL              0.000000  1.000000  0.000000  0.000000
   NITROGEN              0.760088  0.000000  0.658813  0.000000
   OXYGEN                0.230276  0.000000  0.000000  0.000000
   CARBON DIOXIDE        0.000590  0.000000  0.183518  0.000000
   WATER VAPOR           0.009046  0.000000  0.157669  1.000000
   CARBON MONOXIDE       0.000000  0.000000  0.000000  0.000000
   SOOT                  0.000000  0.000000  0.000000  0.000000
   HYDROGEN              0.000000  0.000000  0.000000  0.000000
   HYDROGEN CYANIDE      0.000000  0.000000  0.000000  0.000000


 Primitive Species Information

   METHANOL
   Gas Species
   Molecular Weight (g/mol)            32.04186
   Ambient Density (kg/m^3)            1.301
   Enthalpy of Formation (J/kg)       -6.40E+06

   NITROGEN
   Gas Species
   Molecular Weight (g/mol)            28.01340
   Ambient Density (kg/m^3)            1.137
   Enthalpy of Formation (J/kg)        0.00E+00

   OXYGEN
   Gas Species
   Molecular Weight (g/mol)            31.99880
   Ambient Density (kg/m^3)            1.299
   Enthalpy of Formation (J/kg)        0.00E+00

   CARBON DIOXIDE
   Gas Species
   Molecular Weight (g/mol)            44.00950
   Ambient Density (kg/m^3)            1.787
   Enthalpy of Formation (J/kg)       -8.94E+06

   WATER VAPOR
   Gas Species
   Molecular Weight (g/mol)            18.01528
   Ambient Density (kg/m^3)            0.731
   Enthalpy of Formation (J/kg)       -1.34E+07

   CARBON MONOXIDE
   Gas Species
   Molecular Weight (g/mol)            28.01010
   Ambient Density (kg/m^3)            1.137
   Enthalpy of Formation (J/kg)       -3.95E+06

   SOOT
   Gas Species
   Molecular Weight (g/mol)            10.91042
   Ambient Density (kg/m^3)            0.443
   Enthalpy of Formation (J/kg)        0.00E+00

   HYDROGEN
   Gas Species
   Molecular Weight (g/mol)             2.01588
   Ambient Density (kg/m^3)            0.082
   Enthalpy of Formation (J/kg)        0.00E+00

   HYDROGEN CYANIDE
   Gas Species
   Molecular Weight (g/mol)            27.02534
   Ambient Density (kg/m^3)            1.097
   Enthalpy of Formation (J/kg)        4.92E+06


 Tracked (Lumped) Species Information

   AIR
   Molecular Weight (g/mol)            28.69856
   Ambient Density (kg/m^3)            1.165
   Initial Mass Fraction               1.000
   Enthalpy of Formation (J/kg)     -1.27E+05

   Sub Species                    Mass Fraction     Mole Fraction
   NITROGEN                       7.600885E-01      7.786791E-01
   OXYGEN                         2.302759E-01      2.065261E-01
   CARBON DIOXIDE                 5.896176E-04      3.844892E-04
   WATER VAPOR                    9.045969E-03      1.441034E-02
 
     Viscosity (kg/m/s) Ambient,  300 K:  1.82E-05
                                  500 K:  2.61E-05
                                 1000 K:  4.12E-05
                                 1500 K:  5.37E-05
   Therm. Cond. (W/m/K) Ambient,  300 K:  2.60E-02
                                  500 K:  3.81E-02
                                 1000 K:  6.69E-02
                                 1500 K:  9.27E-02
        Enthalpy (J/kg) Ambient,  300 K: -1.25E+05
                                  500 K:  8.11E+04
                                 1000 K:  6.33E+05
                                 1500 K:  1.23E+06
    Spec. Heat (J/kg/K) Ambient,  300 K:  1.02E+03
                                  500 K:  1.04E+03
                                 1000 K:  1.16E+03
                                 1500 K:  1.23E+03
   Diff. Coeff. (m^2/s) Ambient,  300 K:  2.07E-05
                                  500 K:  4.97E-05
                                 1000 K:  1.58E-04
                                 1500 K:  3.10E-04

   METHANOL
   Molecular Weight (g/mol)            32.04186
   Ambient Density (kg/m^3)            1.301
   Initial Mass Fraction               0.000
   Enthalpy of Formation (J/kg)     -6.40E+06

   Sub Species                    Mass Fraction     Mole Fraction
   METHANOL                       1.000000E+00      1.000000E+00
 
     Viscosity (kg/m/s) Ambient,  300 K:  9.74E-06
                                  500 K:  1.64E-05
                                 1000 K:  3.13E-05
                                 1500 K:  4.32E-05
   Therm. Cond. (W/m/K) Ambient,  300 K:  1.41E-02
                                  500 K:  3.22E-02
                                 1000 K:  9.21E-02
                                 1500 K:  1.50E-01
        Enthalpy (J/kg) Ambient,  300 K: -6.27E+06
                                  500 K: -5.95E+06
                                 1000 K: -4.76E+06
                                 1500 K: -3.22E+06
    Spec. Heat (J/kg/K) Ambient,  300 K:  1.38E+03
                                  500 K:  1.86E+03
                                 1000 K:  2.79E+03
                                 1500 K:  3.29E+03
   Diff. Coeff. (m^2/s) Ambient,  300 K:  1.58E-05
                                  500 K:  4.03E-05
                                 1000 K:  1.34E-04
                                 1500 K:  2.67E-04

   PRODUCTS
   Molecular Weight (g/mol)            27.44260
   Ambient Density (kg/m^3)            1.114
   Initial Mass Fraction               0.000
   Enthalpy of Formation (J/kg)     -3.76E+06

   Sub Species                    Mass Fraction     Mole Fraction
   NITROGEN                       6.588132E-01      6.453893E-01
   CARBON DIOXIDE                 1.835182E-01      1.144348E-01
   WATER VAPOR                    1.576686E-01      2.401759E-01
   CARBON MONOXIDE                0.000000E+00      0.000000E+00
   SOOT                           0.000000E+00      0.000000E+00
   HYDROGEN CYANIDE               0.000000E+00      0.000000E+00
 
     Viscosity (kg/m/s) Ambient,  300 K:  1.60E-05
                                  500 K:  2.34E-05
                                 1000 K:  3.87E-05
                                 1500 K:  5.15E-05
   Therm. Cond. (W/m/K) Ambient,  300 K:  2.35E-02
                                  500 K:  3.60E-02
                                 1000 K:  6.82E-02
                                 1500 K:  9.93E-02
        Enthalpy (J/kg) Ambient,  300 K: -3.76E+06
                                  500 K: -3.52E+06
                                 1000 K: -2.89E+06
                                 1500 K: -2.17E+06
    Spec. Heat (J/kg/K) Ambient,  300 K:  1.13E+03
                                  500 K:  1.19E+03
                                 1000 K:  1.36E+03
                                 1500 K:  1.48E+03
   Diff. Coeff. (m^2/s) Ambient,  300 K:  2.04E-05
                                  500 K:  5.02E-05
                                 1000 K:  1.63E-04
                                 1500 K:  3.21E-04

   WATER VAPOR
   Molecular Weight (g/mol)            18.01528
   Ambient Density (kg/m^3)            0.731
   Initial Mass Fraction               0.000
   Enthalpy of Formation (J/kg)     -1.34E+07

   Sub Species                    Mass Fraction     Mole Fraction
   WATER VAPOR                    1.000000E+00      1.000000E+00
 
     Viscosity (kg/m/s) Ambient,  300 K:  1.08E-05
                                  500 K:  1.77E-05
                                 1000 K:  3.58E-05
                                 1500 K:  5.21E-05
   Therm. Cond. (W/m/K) Ambient,  300 K:  2.01E-02
                                  500 K:  3.46E-02
                                 1000 K:  8.21E-02
                                 1500 K:  1.37E-01
        Enthalpy (J/kg) Ambient,  300 K: -1.34E+07
                                  500 K: -1.30E+07
                                 1000 K: -1.20E+07
                                 1500 K: -1.07E+07
    Spec. Heat (J/kg/K) Ambient,  300 K:  1.86E+03
                                  500 K:  1.96E+03
                                 1000 K:  2.29E+03
                                 1500 K:  2.63E+03
   Diff. Coeff. (m^2/s) Ambient,  300 K:  2.19E-05
                                  500 K:  5.78E-05
                                 1000 K:  1.98E-04
                                 1500 K:  3.95E-04
 
   Liq. Enthalpy (J/kg)     Melt  273 K: -1.60E+07
                                  323 K: -1.58E+07
                            Boil  373 K: -1.56E+07
 
   Liq. Spec. Heat (J/kg/K) Melt  273 K:  4.23E+03
                                  323 K:  4.18E+03
                            Boil  373 K:  4.22E+03
 
   Heat of Vapor. (J/kg)    Melt  273 K:  2.50E+06
                                  323 K:  2.39E+06
                            Boil  373 K:  2.27E+06


 Gas Phase Reaction Information

   Fuel                                           Heat of Combustion (kJ/kg)
   METHANOL                                                       20977.6211

   Stoichiometry

   Primitive Species Stoich. Coeff.
   Species ID                                                          Molar
   METHANOL                                                        -1.000000
   OXYGEN                                                          -1.500000
   CARBON DIOXIDE                                                   1.000000
   WATER VAPOR                                                      2.000000

   Tracked (Lumped) Species Stoich. Coeff.
   Species ID                                             Molar         Mass
   AIR                                                -7.263004    -6.505171
   METHANOL                                           -1.000000    -1.000000
   PRODUCTS                                            8.763004     7.505171

   Reaction Kinetics

   Arrhenius Parameters
   Pre-exponential:    Infinite
   Activation Energy:  N/A

   ODE Solver:  EXPLICIT EULER
   Extinction Model:  EXTINCTION 2
   Auto-Ignition Temperature (K):       0.0
   Critical Flame Temperature (K):   1530.2


 Material Information

   1 CONCRETE                                                    
     Emissivity                      0.900
     Density (kg/m3)                2200.0
     Specific Heat (kJ/kg/K)       1.05E+00
     Conductivity (W/m/K)          1.40E+00

   2 STEEL                                                       
     Eurocode 3
     Emissivity                      0.900
     Density (kg/m3)                7850.0
     Specific Heat (kJ/kg/K)       4.44E-01
     Conductivity (W/m/K)          5.31E+01


 Surface Conditions

   0 INERT (DEFAULT)

   1 Methanol33kW
     HRR Per Unit Area (kW/m2)        206.2
     METHANOL Mass Flux (kg/s/m2)   9.83E-03

   2 STEEL_1mm
     Material List
          1  STEEL
     Layer  1
        Thickness   (m):  0.00200
        Density (kg/m3):  7850.00
        STEEL, Mass fraction:    1.00
     Total surface density    15.700 kg/m2
     Reaction products considered from the first  0.50 layers.
     Solid Phase Node, Layer, Coordinates(m):
                    0      1       0.0000000
                    1      1       0.0020000
     Exposed Backing

   3 OPEN
     Passive Vent to Atmosphere

   4 MIRROR
     Symmetry Plane

   5 INTERPOLATED

   6 PERIODIC

   7 HVAC

   8 MASSLESS TRACER

   9 DROPLET

  10 EVACUATION_OUTFLOW
     Normal Velocity (m/s)         0.000

  11 MASSLESS TARGET

  12 PERIODIC FLOW ONLY


 PROPerty Information

   1 TC
     Smokeview ID                sensor

   2 particle_nozzles
     Flow Rate (L/min)               6.00
     Particle Class              water_droplets
     Smokeview ID                nozzle


 Cut-off Density and Temperature

    Minimum Temperature:   -10.0 C
    Maximum Temperature:  2726.8 C
    Minimum Density:  1.165E-01 kg/m3
    Maximum Density:  2.968E+00 kg/m3


 Device Information

   1 ID: First_Ceiling_Gas_Temperature
     QUANTITY: THERMOCOUPLE
     Coordinates (X,Y,Z):   0.250E+01   0.200E+01   0.180E+01
     TEMPORAL STATISTIC: TIME AVERAGE
   2 ID: Fourth_Ceiling_Gas_Temperature
     QUANTITY: THERMOCOUPLE
     Coordinates (X,Y,Z):   0.380E+01   0.200E+01   0.180E+01
     TEMPORAL STATISTIC: TIME AVERAGE
   3 ID: Second_Ceiling_Gas_Temperature
     QUANTITY: THERMOCOUPLE
     Coordinates (X,Y,Z):   0.300E+01   0.200E+01   0.180E+01
     TEMPORAL STATISTIC: TIME AVERAGE
   4 ID: Third_Ceiling_Gas_Temperature
     QUANTITY: THERMOCOUPLE
     Coordinates (X,Y,Z):   0.350E+01   0.200E+01   0.180E+01
     TEMPORAL STATISTIC: TIME AVERAGE
   5 ID: First_Ceiling_Gas_Temperature1
     QUANTITY: THERMOCOUPLE
     Coordinates (X,Y,Z):   0.250E+01   0.200E+01   0.180E+01
     TEMPORAL STATISTIC: TIME AVERAGE
  Property ID: TC
   6 ID: Fourth_Ceiling_Gas_Temperature1
     QUANTITY: THERMOCOUPLE
     Coordinates (X,Y,Z):   0.380E+01   0.200E+01   0.180E+01
     TEMPORAL STATISTIC: TIME AVERAGE
  Property ID: TC
   7 ID: Second_Ceiling_Gas_Temperature1
     QUANTITY: THERMOCOUPLE
     Coordinates (X,Y,Z):   0.300E+01   0.200E+01   0.180E+01
     TEMPORAL STATISTIC: TIME AVERAGE
  Property ID: TC
   8 ID: Third_Ceiling_Gas_Temperature1
     QUANTITY: THERMOCOUPLE
     Coordinates (X,Y,Z):   0.350E+01   0.200E+01   0.180E+01
     TEMPORAL STATISTIC: TIME AVERAGE
  Property ID: TC
   9 ID: 0.5_TREE1_TEMPERATURE_THERMOCOUPLE
     QUANTITY: TEMPERATURE
     Coordinates (X,Y,Z):   0.300E+01   0.200E+01   0.500E+00
     TEMPORAL STATISTIC: TIME AVERAGE
  10 ID: 0.5_TREE1_THERMOCOUPLE
     QUANTITY: THERMOCOUPLE
     Coordinates (X,Y,Z):   0.300E+01   0.200E+01   0.500E+00
     TEMPORAL STATISTIC: TIME AVERAGE
  11 ID: 0.7_TREE1_TEMPERATURE_THERMOCOUPLE
     QUANTITY: TEMPERATURE
     Coordinates (X,Y,Z):   0.300E+01   0.200E+01   0.700E+00
     TEMPORAL STATISTIC: TIME AVERAGE
  12 ID: 0.7_TREE1_THERMOCOUPLE
     QUANTITY: THERMOCOUPLE
     Coordinates (X,Y,Z):   0.300E+01   0.200E+01   0.700E+00
     TEMPORAL STATISTIC: TIME AVERAGE
  13 ID: 0.9_TREE1_TEMPERATURE_THERMOCOUPLE
     QUANTITY: TEMPERATURE
     Coordinates (X,Y,Z):   0.300E+01   0.200E+01   0.900E+00
     TEMPORAL STATISTIC: TIME AVERAGE
  14 ID: 0.9_TREE1_THERMOCOUPLE
     QUANTITY: THERMOCOUPLE
     Coordinates (X,Y,Z):   0.300E+01   0.200E+01   0.900E+00
     TEMPORAL STATISTIC: TIME AVERAGE
  15 ID: 1.2_TREE1_TEMPERATURE_THERMOCOUPLE
     QUANTITY: TEMPERATURE
     Coordinates (X,Y,Z):   0.300E+01   0.200E+01   0.120E+01
     TEMPORAL STATISTIC: TIME AVERAGE
  16 ID: 1.2_TREE1_THERMOCOUPLE
     QUANTITY: THERMOCOUPLE
     Coordinates (X,Y,Z):   0.300E+01   0.200E+01   0.120E+01
     TEMPORAL STATISTIC: TIME AVERAGE
  17 ID: 1.5_TREE1_TEMPERATURE_THERMOCOUPLE
     QUANTITY: TEMPERATURE
     Coordinates (X,Y,Z):   0.300E+01   0.200E+01   0.150E+01
     TEMPORAL STATISTIC: TIME AVERAGE
  18 ID: 1.5_TREE1_THERMOCOUPLE
     QUANTITY: THERMOCOUPLE
     Coordinates (X,Y,Z):   0.300E+01   0.200E+01   0.150E+01
     TEMPORAL STATISTIC: TIME AVERAGE
  19 ID: 0.5_TREE2_TEMPERATURE_THERMOCOUPLE
     QUANTITY: TEMPERATURE
     Coordinates (X,Y,Z):   0.380E+01   0.200E+01   0.500E+00
     TEMPORAL STATISTIC: TIME AVERAGE
  20 ID: 0.5_TREE2_THERMOCOUPLE
     QUANTITY: THERMOCOUPLE
     Coordinates (X,Y,Z):   0.380E+01   0.200E+01   0.500E+00
     TEMPORAL STATISTIC: TIME AVERAGE
  21 ID: 0.7_TREE2_TEMPERATURE_THERMOCOUPLE
     QUANTITY: TEMPERATURE
     Coordinates (X,Y,Z):   0.380E+01   0.200E+01   0.700E+00
     TEMPORAL STATISTIC: TIME AVERAGE
  22 ID: 0.7_TREE2_THERMOCOUPLE
     QUANTITY: THERMOCOUPLE
     Coordinates (X,Y,Z):   0.380E+01   0.200E+01   0.700E+00
     TEMPORAL STATISTIC: TIME AVERAGE
  23 ID: 0.9_TREE2_TEMPERATURE_THERMOCOUPLE
     QUANTITY: TEMPERATURE
     Coordinates (X,Y,Z):   0.380E+01   0.200E+01   0.900E+00
     TEMPORAL STATISTIC: TIME AVERAGE
  24 ID: 0.9_TREE2_THERMOCOUPLE
     QUANTITY: THERMOCOUPLE
     Coordinates (X,Y,Z):   0.380E+01   0.200E+01   0.900E+00
     TEMPORAL STATISTIC: TIME AVERAGE
  25 ID: 1.2_TREE2_TEMPERATURE_THERMOCOUPLE
     QUANTITY: TEMPERATURE
     Coordinates (X,Y,Z):   0.380E+01   0.200E+01   0.120E+01
     TEMPORAL STATISTIC: TIME AVERAGE
  26 ID: 1.2_TREE2_THERMOCOUPLE
     QUANTITY: THERMOCOUPLE
     Coordinates (X,Y,Z):   0.380E+01   0.200E+01   0.120E+01
     TEMPORAL STATISTIC: TIME AVERAGE
  27 ID: 1.5_TREE2_TEMPERATURE_THERMOCOUPLE
     QUANTITY: TEMPERATURE
     Coordinates (X,Y,Z):   0.380E+01   0.200E+01   0.150E+01
     TEMPORAL STATISTIC: TIME AVERAGE
  28 ID: 1.5_TREE2_THERMOCOUPLE
     QUANTITY: THERMOCOUPLE
     Coordinates (X,Y,Z):   0.380E+01   0.200E+01   0.150E+01
     TEMPORAL STATISTIC: TIME AVERAGE
  29 ID: nozzle
     QUANTITY: TIME
     Coordinates (X,Y,Z):   0.200E+01   0.200E+01   0.180E+01
     TEMPORAL STATISTIC: TIME AVERAGE
  Property ID: particle_nozzles
  30 ID: nozzle
     QUANTITY: TIME
     Coordinates (X,Y,Z):   0.100E+01   0.100E+01   0.180E+01
     TEMPORAL STATISTIC: TIME AVERAGE
  Property ID: particle_nozzles
  31 ID: nozzle
     QUANTITY: TIME
     Coordinates (X,Y,Z):   0.300E+01   0.100E+01   0.180E+01
     TEMPORAL STATISTIC: TIME AVERAGE
  Property ID: particle_nozzles
  32 ID: nozzle
     QUANTITY: TIME
     Coordinates (X,Y,Z):   0.100E+01   0.300E+01   0.180E+01
     TEMPORAL STATISTIC: TIME AVERAGE
  Property ID: particle_nozzles
  33 ID: nozzle
     QUANTITY: TIME
     Coordinates (X,Y,Z):   0.300E+01   0.300E+01   0.180E+01
     TEMPORAL STATISTIC: TIME AVERAGE
  Property ID: particle_nozzles


 Slice File Information, Mesh     1

   Sampling Interval (s)             0.400

   1 Nodes:  40  40   0  40   0  23, Quantity: TEMPERATURE
   2 Nodes:  40  40   0  40   0  23, Quantity: U-VELOCITY
   3 Nodes:  40  40   0  40   0  23, Quantity: V-VELOCITY
   4 Nodes:  40  40   0  40   0  23, Quantity: W-VELOCITY
   5 Nodes:   0  40  40  40   0  23, Quantity: TEMPERATURE
   6 Nodes:   0  40  40  40   0  23, Quantity: U-VELOCITY
   7 Nodes:   0  40  40  40   0  23, Quantity: V-VELOCITY
   8 Nodes:   0  40  40  40   0  23, Quantity: W-VELOCITY
   9 Nodes:  40  40   0  40   0  23, Quantity: TEMPERATURE
  10 Nodes:  40  40   0  40   0  23, Quantity: U-VELOCITY
  11 Nodes:  40  40   0  40   0  23, Quantity: V-VELOCITY
  12 Nodes:  40  40   0  40   0  23, Quantity: W-VELOCITY
  13 Nodes:   0  40  40  40   0  23, Quantity: TEMPERATURE
  14 Nodes:   0  40  40  40   0  23, Quantity: U-VELOCITY
  15 Nodes:   0  40  40  40   0  23, Quantity: V-VELOCITY
  16 Nodes:   0  40  40  40   0  23, Quantity: W-VELOCITY
  17 Nodes:  40  40   0  40   0  23, Quantity: VELOCITY
  18 Nodes:   0  40  40  40   0  23, Quantity: VELOCITY
  19 Nodes:  40  40   0  40   0  23, Quantity: WATER VAPOR MASS FRACTION
  20 Nodes:   0  40  40  40   0  23, Quantity: WATER VAPOR MASS FRACTION


 Boundary File Information

   Sampling Interval (s)             0.800

   1 Quantity: water_droplets AMPUA


 Radiation Model Information

   Number of control angles  104
   Time step increment         3
   Angle increment             5
   Theta band N_phi   Solid angle
     1:        4     0.120
     2:       12     0.114
     3:       16     0.127
     4:       20     0.120
     5:       20     0.120
     6:       16     0.127
     7:       12     0.114
     8:        4     0.120
   Using gray gas absorption.
   Mean beam length  1.000E-01 m
 
 

 Run Time Diagnostics

 Time Step:      1, Simulation Time:      0.03 s, Step Size: 0.02606 s
 Time Step:      2, Simulation Time:      0.05 s, Step Size: 0.02606 s
 Time Step:      3, Simulation Time:      0.08 s, Step Size: 0.02606 s
 Time Step:      4, Simulation Time:      0.10 s, Step Size: 0.02606 s
 Time Step:      5, Simulation Time:      0.13 s, Step Size: 0.02606 s
 Time Step:      6, Simulation Time:      0.16 s, Step Size: 0.02606 s
 Time Step:      7, Simulation Time:      0.18 s, Step Size: 0.02606 s
 Time Step:      8, Simulation Time:      0.21 s, Step Size: 0.02606 s
 Time Step:      9, Simulation Time:      0.23 s, Step Size: 0.02606 s
 Time Step:     10, Simulation Time:      0.26 s, Step Size: 0.02606 s
 Time Step:     20, Simulation Time:      0.52 s, Step Size: 0.02606 s
 Time Step:     30, Simulation Time:      0.70 s, Step Size: 0.01406 s
 Time Step:     40, Simulation Time:      0.82 s, Step Size: 0.01060 s
 Time Step:     50, Simulation Time:      0.90 s, Step Size: 0.00806 s
 Time Step:     60, Simulation Time:      0.97 s, Step Size: 0.00617 s
 Time Step:     70, Simulation Time:      1.03 s, Step Size: 0.00549 s
 Time Step:     80, Simulation Time:      1.08 s, Step Size: 0.00434 s
 Time Step:     90, Simulation Time:      1.12 s, Step Size: 0.00434 s
 Time Step:    100, Simulation Time:      1.17 s, Step Size: 0.00434 s
 Time Step:    200, Simulation Time:      1.49 s, Step Size: 0.00299 s
 Time Step:    300, Simulation Time:      1.73 s, Step Size: 0.00252 s
 Time Step:    400, Simulation Time:      2.01 s, Step Size: 0.00278 s
 Time Step:    500, Simulation Time:      2.26 s, Step Size: 0.00241 s
 Time Step:    600, Simulation Time:      2.51 s, Step Size: 0.00265 s
 Time Step:    700, Simulation Time:      2.78 s, Step Size: 0.00292 s
 Time Step:    800, Simulation Time:      3.07 s, Step Size: 0.00260 s
 Time Step:    900, Simulation Time:      3.35 s, Step Size: 0.00314 s
 Time Step:   1000, Simulation Time:      3.64 s, Step Size: 0.00272 s
 Time Step:   1100, Simulation Time:      3.93 s, Step Size: 0.00294 s
 Time Step:   1200, Simulation Time:      4.21 s, Step Size: 0.00289 s
 Time Step:   1300, Simulation Time:      4.49 s, Step Size: 0.00250 s
 Time Step:   1400, Simulation Time:      4.75 s, Step Size: 0.00296 s
 Time Step:   1500, Simulation Time:      5.04 s, Step Size: 0.00260 s
 Time Step:   1600, Simulation Time:      5.33 s, Step Size: 0.00279 s
 Time Step:   1700, Simulation Time:      5.61 s, Step Size: 0.00265 s
 Time Step:   1800, Simulation Time:      5.88 s, Step Size: 0.00276 s
 Time Step:   1900, Simulation Time:      6.15 s, Step Size: 0.00263 s
 Time Step:   2000, Simulation Time:      6.43 s, Step Size: 0.00259 s
 Time Step:   2100, Simulation Time:      6.69 s, Step Size: 0.00259 s
 Time Step:   2200, Simulation Time:      6.96 s, Step Size: 0.00279 s
 Time Step:   2300, Simulation Time:      7.23 s, Step Size: 0.00279 s
 Time Step:   2400, Simulation Time:      7.52 s, Step Size: 0.00307 s
 Time Step:   2500, Simulation Time:      7.82 s, Step Size: 0.00297 s
 Time Step:   2600, Simulation Time:      8.10 s, Step Size: 0.00294 s
 Time Step:   2700, Simulation Time:      8.39 s, Step Size: 0.00290 s
 Time Step:   2800, Simulation Time:      8.68 s, Step Size: 0.00280 s
 Time Step:   2900, Simulation Time:      8.96 s, Step Size: 0.00295 s
 Time Step:   3000, Simulation Time:      9.24 s, Step Size: 0.00261 s
 Time Step:   3100, Simulation Time:      9.52 s, Step Size: 0.00316 s
 Time Step:   3200, Simulation Time:      9.80 s, Step Size: 0.00276 s
 Time Step:   3300, Simulation Time:     10.09 s, Step Size: 0.00289 s
 Time Step:   3400, Simulation Time:     10.35 s, Step Size: 0.00279 s
 Time Step:   3500, Simulation Time:     10.62 s, Step Size: 0.00238 s
 Time Step:   3600, Simulation Time:     10.87 s, Step Size: 0.00280 s
 Time Step:   3700, Simulation Time:     11.14 s, Step Size: 0.00267 s
 Time Step:   3800, Simulation Time:     11.42 s, Step Size: 0.00237 s
 Time Step:   3900, Simulation Time:     11.67 s, Step Size: 0.00258 s
 Time Step:   4000, Simulation Time:     11.93 s, Step Size: 0.00253 s
 Time Step:   4100, Simulation Time:     12.21 s, Step Size: 0.00272 s
 Time Step:   4200, Simulation Time:     12.49 s, Step Size: 0.00295 s
 Time Step:   4300, Simulation Time:     12.74 s, Step Size: 0.00224 s
 Time Step:   4400, Simulation Time:     13.02 s, Step Size: 0.00239 s
 Time Step:   4500, Simulation Time:     13.28 s, Step Size: 0.00262 s
 Time Step:   4600, Simulation Time:     13.56 s, Step Size: 0.00285 s
 Time Step:   4700, Simulation Time:     13.83 s, Step Size: 0.00248 s
 Time Step:   4800, Simulation Time:     14.12 s, Step Size: 0.00300 s
 Time Step:   4900, Simulation Time:     14.38 s, Step Size: 0.00262 s
 Time Step:   5000, Simulation Time:     14.64 s, Step Size: 0.00249 s
 Time Step:   5100, Simulation Time:     14.92 s, Step Size: 0.00295 s
 Time Step:   5200, Simulation Time:     15.20 s, Step Size: 0.00265 s
 Time Step:   5300, Simulation Time:     15.47 s, Step Size: 0.00291 s
 Time Step:   5400, Simulation Time:     15.72 s, Step Size: 0.00237 s
 Time Step:   5500, Simulation Time:     15.97 s, Step Size: 0.00273 s
 Time Step:   5600, Simulation Time:     16.23 s, Step Size: 0.00263 s
 Time Step:   5700, Simulation Time:     16.49 s, Step Size: 0.00251 s
 Time Step:   5800, Simulation Time:     16.75 s, Step Size: 0.00268 s
 Time Step:   5900, Simulation Time:     16.99 s, Step Size: 0.00237 s
 Time Step:   6000, Simulation Time:     17.26 s, Step Size: 0.00270 s
 Time Step:   6100, Simulation Time:     17.53 s, Step Size: 0.00296 s
 Time Step:   6200, Simulation Time:     17.81 s, Step Size: 0.00263 s
 Time Step:   6300, Simulation Time:     18.09 s, Step Size: 0.00310 s
 Time Step:   6400, Simulation Time:     18.36 s, Step Size: 0.00264 s
 Time Step:   6500, Simulation Time:     18.62 s, Step Size: 0.00285 s
 Time Step:   6600, Simulation Time:     18.86 s, Step Size: 0.00233 s
 Time Step:   6700, Simulation Time:     19.11 s, Step Size: 0.00282 s
 Time Step:   6800, Simulation Time:     19.39 s, Step Size: 0.00299 s
 Time Step:   6900, Simulation Time:     19.67 s, Step Size: 0.00291 s
 Time Step:   7000, Simulation Time:     19.92 s, Step Size: 0.00253 s
 Time Step:   7100, Simulation Time:     20.20 s, Step Size: 0.00279 s
 Time Step:   7200, Simulation Time:     20.46 s, Step Size: 0.00249 s
 Time Step:   7300, Simulation Time:     20.73 s, Step Size: 0.00274 s
 Time Step:   7400, Simulation Time:     20.99 s, Step Size: 0.00271 s
 Time Step:   7500, Simulation Time:     21.25 s, Step Size: 0.00226 s
 Time Step:   7600, Simulation Time:     21.51 s, Step Size: 0.00273 s
 Time Step:   7700, Simulation Time:     21.75 s, Step Size: 0.00268 s
 Time Step:   7800, Simulation Time:     22.02 s, Step Size: 0.00264 s
 Time Step:   7900, Simulation Time:     22.30 s, Step Size: 0.00291 s
 Time Step:   8000, Simulation Time:     22.57 s, Step Size: 0.00258 s
 Time Step:   8100, Simulation Time:     22.85 s, Step Size: 0.00250 s
 Time Step:   8200, Simulation Time:     23.11 s, Step Size: 0.00271 s
 Time Step:   8300, Simulation Time:     23.36 s, Step Size: 0.00250 s
 Time Step:   8400, Simulation Time:     23.63 s, Step Size: 0.00275 s
 Time Step:   8500, Simulation Time:     23.91 s, Step Size: 0.00275 s
 Time Step:   8600, Simulation Time:     24.17 s, Step Size: 0.00268 s
 Time Step:   8700, Simulation Time:     24.46 s, Step Size: 0.00257 s
 Time Step:   8800, Simulation Time:     24.71 s, Step Size: 0.00217 s
 Time Step:   8900, Simulation Time:     24.97 s, Step Size: 0.00289 s
 Time Step:   9000, Simulation Time:     25.23 s, Step Size: 0.00277 s
 Time Step:   9100, Simulation Time:     25.50 s, Step Size: 0.00228 s
 Time Step:   9200, Simulation Time:     25.74 s, Step Size: 0.00276 s
 Time Step:   9300, Simulation Time:     25.99 s, Step Size: 0.00243 s
 Time Step:   9400, Simulation Time:     26.26 s, Step Size: 0.00256 s
 Time Step:   9500, Simulation Time:     26.53 s, Step Size: 0.00282 s
 Time Step:   9600, Simulation Time:     26.81 s, Step Size: 0.00242 s
 Time Step:   9700, Simulation Time:     27.06 s, Step Size: 0.00293 s
 Time Step:   9800, Simulation Time:     27.33 s, Step Size: 0.00258 s
 Time Step:   9900, Simulation Time:     27.59 s, Step Size: 0.00226 s
 Time Step:  10000, Simulation Time:     27.84 s, Step Size: 0.00274 s
 Time Step:  10100, Simulation Time:     28.10 s, Step Size: 0.00243 s
 Time Step:  10200, Simulation Time:     28.38 s, Step Size: 0.00294 s
 Time Step:  10300, Simulation Time:     28.64 s, Step Size: 0.00253 s
 Time Step:  10400, Simulation Time:     28.91 s, Step Size: 0.00279 s
 Time Step:  10500, Simulation Time:     29.16 s, Step Size: 0.00270 s
 Time Step:  10600, Simulation Time:     29.43 s, Step Size: 0.00270 s
 Time Step:  10700, Simulation Time:     29.70 s, Step Size: 0.00270 s
 Time Step:  10800, Simulation Time:     29.94 s, Step Size: 0.00259 s
 Time Step:  10900, Simulation Time:     30.21 s, Step Size: 0.00256 s
 Time Step:  11000, Simulation Time:     30.46 s, Step Size: 0.00277 s
 Time Step:  11100, Simulation Time:     30.71 s, Step Size: 0.00234 s
 Time Step:  11200, Simulation Time:     30.97 s, Step Size: 0.00253 s
 Time Step:  11300, Simulation Time:     31.23 s, Step Size: 0.00253 s
 Time Step:  11400, Simulation Time:     31.50 s, Step Size: 0.00248 s
 Time Step:  11500, Simulation Time:     31.76 s, Step Size: 0.00273 s
 Time Step:  11600, Simulation Time:     32.02 s, Step Size: 0.00265 s
 Time Step:  11700, Simulation Time:     32.30 s, Step Size: 0.00259 s
 Time Step:  11800, Simulation Time:     32.57 s, Step Size: 0.00280 s
 Time Step:  11900, Simulation Time:     32.85 s, Step Size: 0.00273 s
 Time Step:  12000, Simulation Time:     33.12 s, Step Size: 0.00293 s
 Time Step:  12100, Simulation Time:     33.39 s, Step Size: 0.00260 s
 Time Step:  12200, Simulation Time:     33.65 s, Step Size: 0.00271 s
 Time Step:  12300, Simulation Time:     33.90 s, Step Size: 0.00250 s
 Time Step:  12400, Simulation Time:     34.17 s, Step Size: 0.00275 s
 Time Step:  12500, Simulation Time:     34.42 s, Step Size: 0.00245 s
 Time Step:  12600, Simulation Time:     34.69 s, Step Size: 0.00269 s
 Time Step:  12700, Simulation Time:     34.96 s, Step Size: 0.00291 s
 Time Step:  12800, Simulation Time:     35.22 s, Step Size: 0.00246 s
 Time Step:  12900, Simulation Time:     35.47 s, Step Size: 0.00270 s
 Time Step:  13000, Simulation Time:     35.74 s, Step Size: 0.00267 s
 Time Step:  13100, Simulation Time:     35.99 s, Step Size: 0.00258 s
 Time Step:  13200, Simulation Time:     36.25 s, Step Size: 0.00253 s
 Time Step:  13300, Simulation Time:     36.51 s, Step Size: 0.00261 s
 Time Step:  13400, Simulation Time:     36.75 s, Step Size: 0.00228 s
 Time Step:  13500, Simulation Time:     37.00 s, Step Size: 0.00231 s
 Time Step:  13600, Simulation Time:     37.25 s, Step Size: 0.00254 s
 Time Step:  13700, Simulation Time:     37.51 s, Step Size: 0.00246 s
 Time Step:  13800, Simulation Time:     37.76 s, Step Size: 0.00271 s
 Time Step:  13900, Simulation Time:     38.01 s, Step Size: 0.00211 s
 Time Step:  14000, Simulation Time:     38.25 s, Step Size: 0.00280 s
 Time Step:  14100, Simulation Time:     38.49 s, Step Size: 0.00225 s
 Time Step:  14200, Simulation Time:     38.73 s, Step Size: 0.00248 s
 Time Step:  14300, Simulation Time:     38.98 s, Step Size: 0.00215 s
 Time Step:  14400, Simulation Time:     39.23 s, Step Size: 0.00286 s
 Time Step:  14500, Simulation Time:     39.48 s, Step Size: 0.00253 s
 Time Step:  14600, Simulation Time:     39.73 s, Step Size: 0.00250 s
 Time Step:  14700, Simulation Time:     39.95 s, Step Size: 0.00241 s
 Time Step:  14800, Simulation Time:     40.21 s, Step Size: 0.00253 s
 Time Step:  14900, Simulation Time:     40.44 s, Step Size: 0.00230 s
 Time Step:  15000, Simulation Time:     40.69 s, Step Size: 0.00218 s
 Time Step:  15100, Simulation Time:     40.93 s, Step Size: 0.00236 s
 Time Step:  15200, Simulation Time:     41.19 s, Step Size: 0.00249 s
 Time Step:  15300, Simulation Time:     41.43 s, Step Size: 0.00295 s
 Time Step:  15400, Simulation Time:     41.68 s, Step Size: 0.00205 s
 Time Step:  15500, Simulation Time:     41.91 s, Step Size: 0.00249 s
 Time Step:  15600, Simulation Time:     42.15 s, Step Size: 0.00244 s
 Time Step:  15700, Simulation Time:     42.40 s, Step Size: 0.00262 s
 Time Step:  15800, Simulation Time:     42.66 s, Step Size: 0.00262 s
 Time Step:  15900, Simulation Time:     42.93 s, Step Size: 0.00288 s
 Time Step:  16000, Simulation Time:     43.17 s, Step Size: 0.00232 s
 Time Step:  16100, Simulation Time:     43.43 s, Step Size: 0.00251 s
 Time Step:  16200, Simulation Time:     43.65 s, Step Size: 0.00226 s
 Time Step:  16300, Simulation Time:     43.90 s, Step Size: 0.00245 s
 Time Step:  16400, Simulation Time:     44.11 s, Step Size: 0.00211 s
 Time Step:  16500, Simulation Time:     44.37 s, Step Size: 0.00250 s
 Time Step:  16600, Simulation Time:     44.62 s, Step Size: 0.00247 s
 Time Step:  16700, Simulation Time:     44.87 s, Step Size: 0.00244 s
 Time Step:  16800, Simulation Time:     45.11 s, Step Size: 0.00244 s
 Time Step:  16900, Simulation Time:     45.36 s, Step Size: 0.00244 s
 Time Step:  17000, Simulation Time:     45.60 s, Step Size: 0.00264 s
 Time Step:  17100, Simulation Time:     45.85 s, Step Size: 0.00254 s
 Time Step:  17200, Simulation Time:     46.12 s, Step Size: 0.00280 s
 Time Step:  17300, Simulation Time:     46.37 s, Step Size: 0.00252 s
 Time Step:  17400, Simulation Time:     46.62 s, Step Size: 0.00217 s
 Time Step:  17500, Simulation Time:     46.85 s, Step Size: 0.00225 s
 Time Step:  17600, Simulation Time:     47.11 s, Step Size: 0.00243 s
 Time Step:  17700, Simulation Time:     47.35 s, Step Size: 0.00243 s
 Time Step:  17800, Simulation Time:     47.62 s, Step Size: 0.00268 s
 Time Step:  17900, Simulation Time:     47.88 s, Step Size: 0.00236 s
 Time Step:  18000, Simulation Time:     48.13 s, Step Size: 0.00243 s
 Time Step:  18100, Simulation Time:     48.39 s, Step Size: 0.00238 s
 Time Step:  18200, Simulation Time:     48.65 s, Step Size: 0.00288 s
 Time Step:  18300, Simulation Time:     48.91 s, Step Size: 0.00246 s
 Time Step:  18400, Simulation Time:     49.17 s, Step Size: 0.00260 s
 Time Step:  18500, Simulation Time:     49.42 s, Step Size: 0.00257 s
 Time Step:  18600, Simulation Time:     49.67 s, Step Size: 0.00215 s
 Time Step:  18700, Simulation Time:     49.90 s, Step Size: 0.00260 s
 Time Step:  18800, Simulation Time:     50.14 s, Step Size: 0.00256 s
 Time Step:  18900, Simulation Time:     50.39 s, Step Size: 0.00250 s
 Time Step:  19000, Simulation Time:     50.64 s, Step Size: 0.00238 s
 Time Step:  19100, Simulation Time:     50.88 s, Step Size: 0.00238 s
 Time Step:  19200, Simulation Time:     51.12 s, Step Size: 0.00229 s
 Time Step:  19300, Simulation Time:     51.35 s, Step Size: 0.00247 s
 Time Step:  19400, Simulation Time:     51.60 s, Step Size: 0.00241 s
 Time Step:  19500, Simulation Time:     51.84 s, Step Size: 0.00217 s
 Time Step:  19600, Simulation Time:     52.08 s, Step Size: 0.00262 s
 Time Step:  19700, Simulation Time:     52.33 s, Step Size: 0.00259 s
 Time Step:  19800, Simulation Time:     52.59 s, Step Size: 0.00232 s
 Time Step:  19900, Simulation Time:     52.83 s, Step Size: 0.00255 s
 Time Step:  20000, Simulation Time:     53.07 s, Step Size: 0.00229 s
 Time Step:  20100, Simulation Time:     53.32 s, Step Size: 0.00273 s
 Time Step:  20200, Simulation Time:     53.54 s, Step Size: 0.00210 s
 Time Step:  20300, Simulation Time:     53.78 s, Step Size: 0.00245 s
 Time Step:  20400, Simulation Time:     54.02 s, Step Size: 0.00242 s
 Time Step:  20500, Simulation Time:     54.26 s, Step Size: 0.00221 s
 Time Step:  20600, Simulation Time:     54.49 s, Step Size: 0.00253 s
 Time Step:  20700, Simulation Time:     54.74 s, Step Size: 0.00247 s
 Time Step:  20800, Simulation Time:     55.00 s, Step Size: 0.00298 s
 Time Step:  20900, Simulation Time:     55.25 s, Step Size: 0.00251 s
 Time Step:  21000, Simulation Time:     55.51 s, Step Size: 0.00273 s
 Time Step:  21100, Simulation Time:     55.74 s, Step Size: 0.00261 s
 Time Step:  21200, Simulation Time:     56.01 s, Step Size: 0.00227 s
 Time Step:  21300, Simulation Time:     56.23 s, Step Size: 0.00247 s
 Time Step:  21400, Simulation Time:     56.48 s, Step Size: 0.00239 s
 Time Step:  21500, Simulation Time:     56.72 s, Step Size: 0.00255 s
 Time Step:  21600, Simulation Time:     56.98 s, Step Size: 0.00248 s
 Time Step:  21700, Simulation Time:     57.23 s, Step Size: 0.00273 s
 Time Step:  21800, Simulation Time:     57.47 s, Step Size: 0.00253 s
 Time Step:  21900, Simulation Time:     57.72 s, Step Size: 0.00250 s
 Time Step:  22000, Simulation Time:     57.96 s, Step Size: 0.00272 s
 Time Step:  22100, Simulation Time:     58.21 s, Step Size: 0.00250 s
 Time Step:  22200, Simulation Time:     58.48 s, Step Size: 0.00234 s
 Time Step:  22300, Simulation Time:     58.72 s, Step Size: 0.00278 s
 Time Step:  22400, Simulation Time:     58.98 s, Step Size: 0.00272 s
 Time Step:  22500, Simulation Time:     59.23 s, Step Size: 0.00213 s
 Time Step:  22600, Simulation Time:     59.47 s, Step Size: 0.00284 s
 Time Step:  22700, Simulation Time:     59.72 s, Step Size: 0.00246 s
 Time Step:  22800, Simulation Time:     59.97 s, Step Size: 0.00229 s
 Time Step:  22900, Simulation Time:     60.21 s, Step Size: 0.00249 s
 Time Step:  23000, Simulation Time:     60.45 s, Step Size: 0.00221 s
 Time Step:  23100, Simulation Time:     60.67 s, Step Size: 0.00268 s
 Time Step:  23200, Simulation Time:     60.92 s, Step Size: 0.00238 s
 Time Step:  23300, Simulation Time:     61.17 s, Step Size: 0.00240 s
 Time Step:  23400, Simulation Time:     61.42 s, Step Size: 0.00282 s
 Time Step:  23500, Simulation Time:     61.69 s, Step Size: 0.00248 s
 Time Step:  23600, Simulation Time:     61.93 s, Step Size: 0.00270 s
 Time Step:  23700, Simulation Time:     62.20 s, Step Size: 0.00266 s
 Time Step:  23800, Simulation Time:     62.47 s, Step Size: 0.00266 s
 Time Step:  23900, Simulation Time:     62.73 s, Step Size: 0.00255 s
 Time Step:  24000, Simulation Time:     63.00 s, Step Size: 0.00250 s
 Time Step:  24100, Simulation Time:     63.24 s, Step Size: 0.00247 s
 Time Step:  24200, Simulation Time:     63.49 s, Step Size: 0.00191 s
 Time Step:  24300, Simulation Time:     63.73 s, Step Size: 0.00254 s
 Time Step:  24400, Simulation Time:     63.95 s, Step Size: 0.00241 s
 Time Step:  24500, Simulation Time:     64.21 s, Step Size: 0.00250 s
 Time Step:  24600, Simulation Time:     64.47 s, Step Size: 0.00272 s
 Time Step:  24700, Simulation Time:     64.71 s, Step Size: 0.00234 s
 Time Step:  24800, Simulation Time:     64.96 s, Step Size: 0.00232 s
 Time Step:  24900, Simulation Time:     65.20 s, Step Size: 0.00280 s
 Time Step:  25000, Simulation Time:     65.48 s, Step Size: 0.00276 s
 Time Step:  25100, Simulation Time:     65.74 s, Step Size: 0.00285 s
 Time Step:  25200, Simulation Time:     66.00 s, Step Size: 0.00254 s
 Time Step:  25300, Simulation Time:     66.26 s, Step Size: 0.00250 s
 Time Step:  25400, Simulation Time:     66.51 s, Step Size: 0.00265 s
 Time Step:  25500, Simulation Time:     66.78 s, Step Size: 0.00258 s
 Time Step:  25600, Simulation Time:     67.04 s, Step Size: 0.00255 s
 Time Step:  25700, Simulation Time:     67.29 s, Step Size: 0.00218 s
 Time Step:  25800, Simulation Time:     67.55 s, Step Size: 0.00291 s
 Time Step:  25900, Simulation Time:     67.81 s, Step Size: 0.00257 s
 Time Step:  26000, Simulation Time:     68.07 s, Step Size: 0.00222 s
 Time Step:  26100, Simulation Time:     68.30 s, Step Size: 0.00266 s
 Time Step:  26200, Simulation Time:     68.55 s, Step Size: 0.00238 s
 Time Step:  26300, Simulation Time:     68.81 s, Step Size: 0.00262 s
 Time Step:  26400, Simulation Time:     69.05 s, Step Size: 0.00228 s
 Time Step:  26500, Simulation Time:     69.29 s, Step Size: 0.00240 s
 Time Step:  26600, Simulation Time:     69.54 s, Step Size: 0.00253 s
 Time Step:  26700, Simulation Time:     69.80 s, Step Size: 0.00278 s
 Time Step:  26800, Simulation Time:     70.07 s, Step Size: 0.00266 s
 Time Step:  26900, Simulation Time:     70.32 s, Step Size: 0.00251 s
 Time Step:  27000, Simulation Time:     70.57 s, Step Size: 0.00272 s
 Time Step:  27100, Simulation Time:     70.82 s, Step Size: 0.00233 s
 Time Step:  27200, Simulation Time:     71.05 s, Step Size: 0.00228 s
 Time Step:  27300, Simulation Time:     71.30 s, Step Size: 0.00269 s
 Time Step:  27400, Simulation Time:     71.55 s, Step Size: 0.00237 s
 Time Step:  27500, Simulation Time:     71.80 s, Step Size: 0.00229 s
 Time Step:  27600, Simulation Time:     72.04 s, Step Size: 0.00263 s
 Time Step:  27700, Simulation Time:     72.31 s, Step Size: 0.00259 s
 Time Step:  27800, Simulation Time:     72.57 s, Step Size: 0.00282 s
 Time Step:  27900, Simulation Time:     72.82 s, Step Size: 0.00263 s
 Time Step:  28000, Simulation Time:     73.08 s, Step Size: 0.00225 s
 Time Step:  28100, Simulation Time:     73.29 s, Step Size: 0.00217 s
 Time Step:  28200, Simulation Time:     73.54 s, Step Size: 0.00259 s
 Time Step:  28300, Simulation Time:     73.76 s, Step Size: 0.00241 s
 Time Step:  28400, Simulation Time:     74.00 s, Step Size: 0.00215 s
 Time Step:  28500, Simulation Time:     74.25 s, Step Size: 0.00261 s
 Time Step:  28600, Simulation Time:     74.48 s, Step Size: 0.00225 s
 Time Step:  28700, Simulation Time:     74.73 s, Step Size: 0.00247 s
 Time Step:  28800, Simulation Time:     75.00 s, Step Size: 0.00261 s
 Time Step:  28900, Simulation Time:     75.24 s, Step Size: 0.00281 s
 Time Step:  29000, Simulation Time:     75.50 s, Step Size: 0.00249 s
 Time Step:  29100, Simulation Time:     75.74 s, Step Size: 0.00264 s
 Time Step:  29200, Simulation Time:     75.99 s, Step Size: 0.00260 s
 Time Step:  29300, Simulation Time:     76.26 s, Step Size: 0.00255 s
 Time Step:  29400, Simulation Time:     76.52 s, Step Size: 0.00270 s
 Time Step:  29500, Simulation Time:     76.77 s, Step Size: 0.00264 s
 Time Step:  29600, Simulation Time:     77.04 s, Step Size: 0.00264 s
 Time Step:  29700, Simulation Time:     77.28 s, Step Size: 0.00259 s
 Time Step:  29800, Simulation Time:     77.50 s, Step Size: 0.00219 s
 Time Step:  29900, Simulation Time:     77.76 s, Step Size: 0.00265 s
 Time Step:  30000, Simulation Time:     78.00 s, Step Size: 0.00254 s
 Time Step:  30100, Simulation Time:     78.26 s, Step Size: 0.00223 s
 Time Step:  30200, Simulation Time:     78.51 s, Step Size: 0.00266 s
 Time Step:  30300, Simulation Time:     78.76 s, Step Size: 0.00230 s
 Time Step:  30400, Simulation Time:     79.02 s, Step Size: 0.00238 s
 Time Step:  30500, Simulation Time:     79.26 s, Step Size: 0.00236 s
 Time Step:  30600, Simulation Time:     79.52 s, Step Size: 0.00253 s
 Time Step:  30700, Simulation Time:     79.76 s, Step Size: 0.00242 s
 Time Step:  30800, Simulation Time:     80.00 s, Step Size: 0.00266 s
 Time Step:  30900, Simulation Time:     80.24 s, Step Size: 0.00237 s
 Time Step:  31000, Simulation Time:     80.48 s, Step Size: 0.00261 s
 Time Step:  31100, Simulation Time:     80.74 s, Step Size: 0.00269 s
 Time Step:  31200, Simulation Time:     80.98 s, Step Size: 0.00230 s
 Time Step:  31300, Simulation Time:     81.24 s, Step Size: 0.00278 s
 Time Step:  31400, Simulation Time:     81.48 s, Step Size: 0.00220 s
 Time Step:  31500, Simulation Time:     81.73 s, Step Size: 0.00266 s
 Time Step:  31600, Simulation Time:     81.96 s, Step Size: 0.00245 s
 Time Step:  31700, Simulation Time:     82.22 s, Step Size: 0.00208 s
 Time Step:  31800, Simulation Time:     82.43 s, Step Size: 0.00228 s
 Time Step:  31900, Simulation Time:     82.67 s, Step Size: 0.00238 s
 Time Step:  32000, Simulation Time:     82.90 s, Step Size: 0.00230 s
 Time Step:  32100, Simulation Time:     83.16 s, Step Size: 0.00250 s
 Time Step:  32200, Simulation Time:     83.41 s, Step Size: 0.00271 s
 Time Step:  32300, Simulation Time:     83.65 s, Step Size: 0.00232 s
 Time Step:  32400, Simulation Time:     83.89 s, Step Size: 0.00249 s
 Time Step:  32500, Simulation Time:     84.14 s, Step Size: 0.00234 s
 Time Step:  32600, Simulation Time:     84.40 s, Step Size: 0.00255 s
 Time Step:  32700, Simulation Time:     84.66 s, Step Size: 0.00255 s
 Time Step:  32800, Simulation Time:     84.91 s, Step Size: 0.00239 s
 Time Step:  32900, Simulation Time:     85.16 s, Step Size: 0.00255 s
 Time Step:  33000, Simulation Time:     85.40 s, Step Size: 0.00266 s
 Time Step:  33100, Simulation Time:     85.65 s, Step Size: 0.00232 s
 Time Step:  33200, Simulation Time:     85.90 s, Step Size: 0.00255 s
 Time Step:  33300, Simulation Time:     86.15 s, Step Size: 0.00255 s
 Time Step:  33400, Simulation Time:     86.38 s, Step Size: 0.00272 s
 Time Step:  33500, Simulation Time:     86.62 s, Step Size: 0.00215 s
 Time Step:  33600, Simulation Time:     86.86 s, Step Size: 0.00236 s
 Time Step:  33700, Simulation Time:     87.12 s, Step Size: 0.00286 s
 Time Step:  33800, Simulation Time:     87.37 s, Step Size: 0.00247 s
 Time Step:  33900, Simulation Time:     87.62 s, Step Size: 0.00244 s
 Time Step:  34000, Simulation Time:     87.86 s, Step Size: 0.00217 s
 Time Step:  34100, Simulation Time:     88.10 s, Step Size: 0.00259 s
 Time Step:  34200, Simulation Time:     88.36 s, Step Size: 0.00230 s
 Time Step:  34300, Simulation Time:     88.59 s, Step Size: 0.00235 s
 Time Step:  34400, Simulation Time:     88.83 s, Step Size: 0.00245 s
 Time Step:  34500, Simulation Time:     89.07 s, Step Size: 0.00233 s
 Time Step:  34600, Simulation Time:     89.32 s, Step Size: 0.00256 s
 Time Step:  34700, Simulation Time:     89.57 s, Step Size: 0.00251 s
 Time Step:  34800, Simulation Time:     89.82 s, Step Size: 0.00272 s
 Time Step:  34900, Simulation Time:     90.06 s, Step Size: 0.00242 s
 Time Step:  35000, Simulation Time:     90.31 s, Step Size: 0.00252 s
 Time Step:  35100, Simulation Time:     90.56 s, Step Size: 0.00252 s
 Time Step:  35200, Simulation Time:     90.81 s, Step Size: 0.00252 s
 Time Step:  35300, Simulation Time:     91.05 s, Step Size: 0.00231 s
 Time Step:  35400, Simulation Time:     91.29 s, Step Size: 0.00254 s
 Time Step:  35500, Simulation Time:     91.53 s, Step Size: 0.00235 s
 Time Step:  35600, Simulation Time:     91.78 s, Step Size: 0.00259 s
 Time Step:  35700, Simulation Time:     92.03 s, Step Size: 0.00259 s
 Time Step:  35800, Simulation Time:     92.29 s, Step Size: 0.00279 s
 Time Step:  35900, Simulation Time:     92.54 s, Step Size: 0.00265 s
 Time Step:  36000, Simulation Time:     92.80 s, Step Size: 0.00253 s
 Time Step:  36100, Simulation Time:     93.04 s, Step Size: 0.00274 s
 Time Step:  36200, Simulation Time:     93.31 s, Step Size: 0.00270 s
 Time Step:  36300, Simulation Time:     93.57 s, Step Size: 0.00264 s
 Time Step:  36400, Simulation Time:     93.80 s, Step Size: 0.00210 s
 Time Step:  36500, Simulation Time:     94.04 s, Step Size: 0.00248 s
 Time Step:  36600, Simulation Time:     94.26 s, Step Size: 0.00215 s
 Time Step:  36700, Simulation Time:     94.51 s, Step Size: 0.00230 s
 Time Step:  36800, Simulation Time:     94.75 s, Step Size: 0.00253 s
 Time Step:  36900, Simulation Time:     95.00 s, Step Size: 0.00248 s
 Time Step:  37000, Simulation Time:     95.13 s, Step Size: 0.00120 s
 Time Step:  37100, Simulation Time:     95.25 s, Step Size: 0.00098 s
 Time Step:  37200, Simulation Time:     95.37 s, Step Size: 0.00113 s
 Time Step:  37300, Simulation Time:     95.50 s, Step Size: 0.00127 s
 Time Step:  37400, Simulation Time:     95.63 s, Step Size: 0.00110 s
 Time Step:  37500, Simulation Time:     95.75 s, Step Size: 0.00127 s
 Time Step:  37600, Simulation Time:     95.88 s, Step Size: 0.00119 s
 Time Step:  37700, Simulation Time:     96.01 s, Step Size: 0.00133 s
 Time Step:  37800, Simulation Time:     96.14 s, Step Size: 0.00134 s
 Time Step:  37900, Simulation Time:     96.27 s, Step Size: 0.00157 s
 Time Step:  38000, Simulation Time:     96.41 s, Step Size: 0.00126 s
 Time Step:  38100, Simulation Time:     96.53 s, Step Size: 0.00118 s
 Time Step:  38200, Simulation Time:     96.67 s, Step Size: 0.00127 s
 Time Step:  38300, Simulation Time:     96.79 s, Step Size: 0.00100 s
 Time Step:  38400, Simulation Time:     96.92 s, Step Size: 0.00103 s
 Time Step:  38500, Simulation Time:     97.04 s, Step Size: 0.00130 s
 Time Step:  38600, Simulation Time:     97.17 s, Step Size: 0.00128 s
 Time Step:  38700, Simulation Time:     97.30 s, Step Size: 0.00159 s
 Time Step:  38800, Simulation Time:     97.43 s, Step Size: 0.00135 s
 Time Step:  38900, Simulation Time:     97.56 s, Step Size: 0.00120 s
 Time Step:  39000, Simulation Time:     97.69 s, Step Size: 0.00149 s
 Time Step:  39100, Simulation Time:     97.83 s, Step Size: 0.00137 s
 Time Step:  39200, Simulation Time:     97.95 s, Step Size: 0.00131 s
 Time Step:  39300, Simulation Time:     98.08 s, Step Size: 0.00133 s
 Time Step:  39400, Simulation Time:     98.22 s, Step Size: 0.00117 s
 Time Step:  39500, Simulation Time:     98.35 s, Step Size: 0.00133 s
 Time Step:  39600, Simulation Time:     98.48 s, Step Size: 0.00105 s
 Time Step:  39700, Simulation Time:     98.60 s, Step Size: 0.00154 s
 Time Step:  39800, Simulation Time:     98.73 s, Step Size: 0.00120 s
 Time Step:  39900, Simulation Time:     98.87 s, Step Size: 0.00158 s
 Time Step:  40000, Simulation Time:     99.00 s, Step Size: 0.00154 s
 Time Step:  40100, Simulation Time:     99.13 s, Step Size: 0.00126 s
 Time Step:  40200, Simulation Time:     99.26 s, Step Size: 0.00122 s
 Time Step:  40300, Simulation Time:     99.39 s, Step Size: 0.00127 s
 Time Step:  40400, Simulation Time:     99.53 s, Step Size: 0.00155 s
 Time Step:  40500, Simulation Time:     99.66 s, Step Size: 0.00115 s
 Time Step:  40600, Simulation Time:     99.80 s, Step Size: 0.00145 s
 Time Step:  40700, Simulation Time:     99.93 s, Step Size: 0.00142 s
 Time Step:  40800, Simulation Time:    100.07 s, Step Size: 0.00129 s
 Time Step:  40900, Simulation Time:    100.20 s, Step Size: 0.00122 s
 Time Step:  41000, Simulation Time:    100.33 s, Step Size: 0.00126 s
 Time Step:  41100, Simulation Time:    100.46 s, Step Size: 0.00124 s
 Time Step:  41200, Simulation Time:    100.60 s, Step Size: 0.00154 s
 Time Step:  41300, Simulation Time:    100.73 s, Step Size: 0.00117 s
 Time Step:  41400, Simulation Time:    100.86 s, Step Size: 0.00149 s
 Time Step:  41500, Simulation Time:    100.99 s, Step Size: 0.00134 s
 Time Step:  41600, Simulation Time:    101.12 s, Step Size: 0.00162 s
 Time Step:  41700, Simulation Time:    101.26 s, Step Size: 0.00145 s
 Time Step:  41800, Simulation Time:    101.39 s, Step Size: 0.00142 s
 Time Step:  41900, Simulation Time:    101.51 s, Step Size: 0.00136 s
 Time Step:  42000, Simulation Time:    101.64 s, Step Size: 0.00143 s
 Time Step:  42100, Simulation Time:    101.77 s, Step Size: 0.00139 s
 Time Step:  42200, Simulation Time:    101.90 s, Step Size: 0.00157 s
 Time Step:  42300, Simulation Time:    102.04 s, Step Size: 0.00125 s
 Time Step:  42400, Simulation Time:    102.18 s, Step Size: 0.00135 s
 Time Step:  42500, Simulation Time:    102.32 s, Step Size: 0.00149 s
 Time Step:  42600, Simulation Time:    102.45 s, Step Size: 0.00146 s
 Time Step:  42700, Simulation Time:    102.58 s, Step Size: 0.00151 s
 Time Step:  42800, Simulation Time:    102.72 s, Step Size: 0.00153 s
 Time Step:  42900, Simulation Time:    102.85 s, Step Size: 0.00129 s
 Time Step:  43000, Simulation Time:    102.99 s, Step Size: 0.00171 s
 Time Step:  43100, Simulation Time:    103.13 s, Step Size: 0.00141 s
 Time Step:  43200, Simulation Time:    103.27 s, Step Size: 0.00126 s
 Time Step:  43300, Simulation Time:    103.41 s, Step Size: 0.00139 s
 Time Step:  43400, Simulation Time:    103.54 s, Step Size: 0.00121 s
 Time Step:  43500, Simulation Time:    103.68 s, Step Size: 0.00125 s
 Time Step:  43600, Simulation Time:    103.81 s, Step Size: 0.00113 s
 Time Step:  43700, Simulation Time:    103.94 s, Step Size: 0.00107 s
 Time Step:  43800, Simulation Time:    104.08 s, Step Size: 0.00138 s
 Time Step:  43900, Simulation Time:    104.22 s, Step Size: 0.00156 s
 Time Step:  44000, Simulation Time:    104.36 s, Step Size: 0.00134 s
 Time Step:  44100, Simulation Time:    104.49 s, Step Size: 0.00118 s
 Time Step:  44200, Simulation Time:    104.63 s, Step Size: 0.00159 s
 Time Step:  44300, Simulation Time:    104.77 s, Step Size: 0.00148 s
 Time Step:  44400, Simulation Time:    104.90 s, Step Size: 0.00161 s
 Time Step:  44500, Simulation Time:    105.04 s, Step Size: 0.00156 s
 Time Step:  44600, Simulation Time:    105.17 s, Step Size: 0.00118 s
 Time Step:  44700, Simulation Time:    105.31 s, Step Size: 0.00150 s
 Time Step:  44800, Simulation Time:    105.46 s, Step Size: 0.00157 s
 Time Step:  44900, Simulation Time:    105.59 s, Step Size: 0.00150 s
 Time Step:  45000, Simulation Time:    105.73 s, Step Size: 0.00127 s
 Time Step:  45100, Simulation Time:    105.86 s, Step Size: 0.00148 s
 Time Step:  45200, Simulation Time:    106.01 s, Step Size: 0.00130 s
 Time Step:  45300, Simulation Time:    106.15 s, Step Size: 0.00142 s
 Time Step:  45400, Simulation Time:    106.29 s, Step Size: 0.00096 s
 Time Step:  45500, Simulation Time:    106.43 s, Step Size: 0.00145 s
 Time Step:  45600, Simulation Time:    106.56 s, Step Size: 0.00158 s
 Time Step:  45700, Simulation Time:    106.71 s, Step Size: 0.00148 s
 Time Step:  45800, Simulation Time:    106.84 s, Step Size: 0.00133 s
 Time Step:  45900, Simulation Time:    106.98 s, Step Size: 0.00143 s
 Time Step:  46000, Simulation Time:    107.12 s, Step Size: 0.00116 s
 Time Step:  46100, Simulation Time:    107.26 s, Step Size: 0.00145 s
 Time Step:  46200, Simulation Time:    107.40 s, Step Size: 0.00125 s
 Time Step:  46300, Simulation Time:    107.53 s, Step Size: 0.00107 s
 Time Step:  46400, Simulation Time:    107.66 s, Step Size: 0.00104 s
 Time Step:  46500, Simulation Time:    107.80 s, Step Size: 0.00117 s
 Time Step:  46600, Simulation Time:    107.94 s, Step Size: 0.00122 s
 Time Step:  46700, Simulation Time:    108.07 s, Step Size: 0.00158 s
 Time Step:  46800, Simulation Time:    108.21 s, Step Size: 0.00143 s
 Time Step:  46900, Simulation Time:    108.35 s, Step Size: 0.00160 s
 Time Step:  47000, Simulation Time:    108.50 s, Step Size: 0.00151 s
 Time Step:  47100, Simulation Time:    108.64 s, Step Size: 0.00128 s
 Time Step:  47200, Simulation Time:    108.78 s, Step Size: 0.00157 s
 Time Step:  47300, Simulation Time:    108.92 s, Step Size: 0.00172 s
 Time Step:  47400, Simulation Time:    109.06 s, Step Size: 0.00148 s
 Time Step:  47500, Simulation Time:    109.21 s, Step Size: 0.00163 s
 Time Step:  47600, Simulation Time:    109.35 s, Step Size: 0.00133 s
 Time Step:  47700, Simulation Time:    109.49 s, Step Size: 0.00165 s
 Time Step:  47800, Simulation Time:    109.62 s, Step Size: 0.00151 s
 Time Step:  47900, Simulation Time:    109.76 s, Step Size: 0.00120 s
 Time Step:  48000, Simulation Time:    109.90 s, Step Size: 0.00147 s
 Time Step:  48100, Simulation Time:    110.04 s, Step Size: 0.00125 s
 Time Step:  48200, Simulation Time:    110.18 s, Step Size: 0.00160 s
 Time Step:  48300, Simulation Time:    110.32 s, Step Size: 0.00164 s
 Time Step:  48400, Simulation Time:    110.46 s, Step Size: 0.00136 s
 Time Step:  48500, Simulation Time:    110.60 s, Step Size: 0.00134 s
 Time Step:  48600, Simulation Time:    110.75 s, Step Size: 0.00179 s
 Time Step:  48700, Simulation Time:    110.89 s, Step Size: 0.00126 s
 Time Step:  48800, Simulation Time:    111.02 s, Step Size: 0.00146 s
 Time Step:  48900, Simulation Time:    111.16 s, Step Size: 0.00159 s
 Time Step:  49000, Simulation Time:    111.30 s, Step Size: 0.00102 s
 Time Step:  49100, Simulation Time:    111.44 s, Step Size: 0.00176 s
 Time Step:  49200, Simulation Time:    111.59 s, Step Size: 0.00130 s
 Time Step:  49300, Simulation Time:    111.73 s, Step Size: 0.00155 s
 Time Step:  49400, Simulation Time:    111.87 s, Step Size: 0.00160 s
 Time Step:  49500, Simulation Time:    112.01 s, Step Size: 0.00129 s
 Time Step:  49600, Simulation Time:    112.15 s, Step Size: 0.00127 s
 Time Step:  49700, Simulation Time:    112.29 s, Step Size: 0.00120 s
 Time Step:  49800, Simulation Time:    112.43 s, Step Size: 0.00119 s
 Time Step:  49900, Simulation Time:    112.56 s, Step Size: 0.00146 s
 Time Step:  50000, Simulation Time:    112.70 s, Step Size: 0.00147 s
 Time Step:  50100, Simulation Time:    112.83 s, Step Size: 0.00104 s
 Time Step:  50200, Simulation Time:    112.97 s, Step Size: 0.00134 s
 Time Step:  50300, Simulation Time:    113.11 s, Step Size: 0.00147 s
 Time Step:  50400, Simulation Time:    113.25 s, Step Size: 0.00112 s
 Time Step:  50500, Simulation Time:    113.40 s, Step Size: 0.00151 s
 Time Step:  50600, Simulation Time:    113.54 s, Step Size: 0.00146 s
 Time Step:  50700, Simulation Time:    113.69 s, Step Size: 0.00168 s
 Time Step:  50800, Simulation Time:    113.83 s, Step Size: 0.00135 s
 Time Step:  50900, Simulation Time:    113.97 s, Step Size: 0.00166 s
 Time Step:  51000, Simulation Time:    114.11 s, Step Size: 0.00161 s
 Time Step:  51100, Simulation Time:    114.25 s, Step Size: 0.00148 s
 Time Step:  51200, Simulation Time:    114.39 s, Step Size: 0.00151 s
 Time Step:  51300, Simulation Time:    114.52 s, Step Size: 0.00149 s
 Time Step:  51400, Simulation Time:    114.66 s, Step Size: 0.00144 s
 Time Step:  51500, Simulation Time:    114.80 s, Step Size: 0.00143 s
 Time Step:  51600, Simulation Time:    114.93 s, Step Size: 0.00129 s
 Time Step:  51700, Simulation Time:    115.07 s, Step Size: 0.00124 s
 Time Step:  51800, Simulation Time:    115.21 s, Step Size: 0.00152 s
 Time Step:  51900, Simulation Time:    115.34 s, Step Size: 0.00130 s
 Time Step:  52000, Simulation Time:    115.49 s, Step Size: 0.00167 s
 Time Step:  52100, Simulation Time:    115.63 s, Step Size: 0.00122 s
 Time Step:  52200, Simulation Time:    115.77 s, Step Size: 0.00130 s
 Time Step:  52300, Simulation Time:    115.91 s, Step Size: 0.00145 s
 Time Step:  52400, Simulation Time:    116.05 s, Step Size: 0.00141 s
 Time Step:  52500, Simulation Time:    116.18 s, Step Size: 0.00170 s
 Time Step:  52600, Simulation Time:    116.33 s, Step Size: 0.00139 s
 Time Step:  52700, Simulation Time:    116.46 s, Step Size: 0.00134 s
 Time Step:  52800, Simulation Time:    116.60 s, Step Size: 0.00163 s
 Time Step:  52900, Simulation Time:    116.74 s, Step Size: 0.00135 s
 Time Step:  53000, Simulation Time:    116.88 s, Step Size: 0.00132 s
 Time Step:  53100, Simulation Time:    117.01 s, Step Size: 0.00117 s
 Time Step:  53200, Simulation Time:    117.15 s, Step Size: 0.00151 s
 Time Step:  53300, Simulation Time:    117.29 s, Step Size: 0.00147 s
 Time Step:  53400, Simulation Time:    117.43 s, Step Size: 0.00149 s
 Time Step:  53500, Simulation Time:    117.57 s, Step Size: 0.00153 s
 Time Step:  53600, Simulation Time:    117.72 s, Step Size: 0.00124 s
 Time Step:  53700, Simulation Time:    117.86 s, Step Size: 0.00141 s
 Time Step:  53800, Simulation Time:    118.00 s, Step Size: 0.00148 s
 Time Step:  53900, Simulation Time:    118.14 s, Step Size: 0.00144 s
 Time Step:  54000, Simulation Time:    118.29 s, Step Size: 0.00155 s
 Time Step:  54100, Simulation Time:    118.44 s, Step Size: 0.00151 s
 Time Step:  54200, Simulation Time:    118.59 s, Step Size: 0.00141 s
 Time Step:  54300, Simulation Time:    118.74 s, Step Size: 0.00157 s
 Time Step:  54400, Simulation Time:    118.89 s, Step Size: 0.00153 s
 Time Step:  54500, Simulation Time:    119.05 s, Step Size: 0.00127 s
 Time Step:  54600, Simulation Time:    119.20 s, Step Size: 0.00149 s
 Time Step:  54700, Simulation Time:    119.35 s, Step Size: 0.00142 s
 Time Step:  54800, Simulation Time:    119.49 s, Step Size: 0.00107 s
 Time Step:  54900, Simulation Time:    119.64 s, Step Size: 0.00171 s
 Time Step:  55000, Simulation Time:    119.78 s, Step Size: 0.00126 s
 Time Step:  55100, Simulation Time:    119.92 s, Step Size: 0.00139 s
 Time Step:  55200, Simulation Time:    120.06 s, Step Size: 0.00148 s
 Time Step:  55300, Simulation Time:    120.20 s, Step Size: 0.00148 s
 Time Step:  55400, Simulation Time:    120.34 s, Step Size: 0.00112 s
 Time Step:  55500, Simulation Time:    120.48 s, Step Size: 0.00121 s
 Time Step:  55600, Simulation Time:    120.62 s, Step Size: 0.00110 s
 Time Step:  55700, Simulation Time:    120.76 s, Step Size: 0.00143 s
 Time Step:  55800, Simulation Time:    120.90 s, Step Size: 0.00149 s
 Time Step:  55900, Simulation Time:    121.04 s, Step Size: 0.00167 s
 Time Step:  56000, Simulation Time:    121.18 s, Step Size: 0.00167 s
 Time Step:  56100, Simulation Time:    121.32 s, Step Size: 0.00097 s
 Time Step:  56200, Simulation Time:    121.46 s, Step Size: 0.00171 s
 Time Step:  56300, Simulation Time:    121.61 s, Step Size: 0.00155 s
 Time Step:  56400, Simulation Time:    121.75 s, Step Size: 0.00152 s
 Time Step:  56500, Simulation Time:    121.90 s, Step Size: 0.00147 s
 Time Step:  56600, Simulation Time:    122.04 s, Step Size: 0.00131 s
 Time Step:  56700, Simulation Time:    122.17 s, Step Size: 0.00143 s
 Time Step:  56800, Simulation Time:    122.31 s, Step Size: 0.00112 s
 Time Step:  56900, Simulation Time:    122.44 s, Step Size: 0.00129 s
 Time Step:  57000, Simulation Time:    122.58 s, Step Size: 0.00133 s
 Time Step:  57100, Simulation Time:    122.71 s, Step Size: 0.00150 s
 Time Step:  57200, Simulation Time:    122.85 s, Step Size: 0.00112 s
 Time Step:  57300, Simulation Time:    122.99 s, Step Size: 0.00180 s
 Time Step:  57400, Simulation Time:    123.14 s, Step Size: 0.00107 s
 Time Step:  57500, Simulation Time:    123.29 s, Step Size: 0.00150 s
 Time Step:  57600, Simulation Time:    123.43 s, Step Size: 0.00128 s
 Time Step:  57700, Simulation Time:    123.58 s, Step Size: 0.00132 s
 Time Step:  57800, Simulation Time:    123.72 s, Step Size: 0.00138 s
 Time Step:  57900, Simulation Time:    123.86 s, Step Size: 0.00157 s
 Time Step:  58000, Simulation Time:    124.01 s, Step Size: 0.00136 s
 Time Step:  58100, Simulation Time:    124.15 s, Step Size: 0.00147 s
 Time Step:  58200, Simulation Time:    124.30 s, Step Size: 0.00151 s
 Time Step:  58300, Simulation Time:    124.43 s, Step Size: 0.00126 s
 Time Step:  58400, Simulation Time:    124.58 s, Step Size: 0.00122 s
 Time Step:  58500, Simulation Time:    124.72 s, Step Size: 0.00126 s
 Time Step:  58600, Simulation Time:    124.86 s, Step Size: 0.00131 s
 Time Step:  58700, Simulation Time:    125.00 s, Step Size: 0.00170 s
 Time Step:  58800, Simulation Time:    125.15 s, Step Size: 0.00155 s
 Time Step:  58900, Simulation Time:    125.29 s, Step Size: 0.00130 s
 Time Step:  59000, Simulation Time:    125.43 s, Step Size: 0.00142 s
 Time Step:  59100, Simulation Time:    125.57 s, Step Size: 0.00129 s
 Time Step:  59200, Simulation Time:    125.71 s, Step Size: 0.00137 s
 Time Step:  59300, Simulation Time:    125.84 s, Step Size: 0.00120 s
 Time Step:  59400, Simulation Time:    125.98 s, Step Size: 0.00129 s
 Time Step:  59500, Simulation Time:    126.12 s, Step Size: 0.00120 s
 Time Step:  59600, Simulation Time:    126.26 s, Step Size: 0.00144 s
 Time Step:  59700, Simulation Time:    126.40 s, Step Size: 0.00155 s
 Time Step:  59800, Simulation Time:    126.53 s, Step Size: 0.00150 s
 Time Step:  59900, Simulation Time:    126.68 s, Step Size: 0.00121 s
 Time Step:  60000, Simulation Time:    126.81 s, Step Size: 0.00140 s
 Time Step:  60100, Simulation Time:    126.96 s, Step Size: 0.00121 s
 Time Step:  60200, Simulation Time:    127.09 s, Step Size: 0.00136 s
 Time Step:  60300, Simulation Time:    127.22 s, Step Size: 0.00141 s
 Time Step:  60400, Simulation Time:    127.36 s, Step Size: 0.00158 s
 Time Step:  60500, Simulation Time:    127.50 s, Step Size: 0.00156 s
 Time Step:  60600, Simulation Time:    127.65 s, Step Size: 0.00156 s
 Time Step:  60700, Simulation Time:    127.80 s, Step Size: 0.00143 s
 Time Step:  60800, Simulation Time:    127.95 s, Step Size: 0.00114 s
 Time Step:  60900, Simulation Time:    128.10 s, Step Size: 0.00154 s
 Time Step:  61000, Simulation Time:    128.25 s, Step Size: 0.00155 s
 Time Step:  61100, Simulation Time:    128.39 s, Step Size: 0.00151 s
 Time Step:  61200, Simulation Time:    128.55 s, Step Size: 0.00145 s
 Time Step:  61300, Simulation Time:    128.70 s, Step Size: 0.00157 s
 Time Step:  61400, Simulation Time:    128.85 s, Step Size: 0.00158 s
 Time Step:  61500, Simulation Time:    129.00 s, Step Size: 0.00163 s
 Time Step:  61600, Simulation Time:    129.15 s, Step Size: 0.00167 s
 Time Step:  61700, Simulation Time:    129.30 s, Step Size: 0.00169 s
 Time Step:  61800, Simulation Time:    129.45 s, Step Size: 0.00152 s
 Time Step:  61900, Simulation Time:    129.60 s, Step Size: 0.00128 s
 Time Step:  62000, Simulation Time:    129.74 s, Step Size: 0.00156 s
 Time Step:  62100, Simulation Time:    129.89 s, Step Size: 0.00119 s
 Time Step:  62200, Simulation Time:    130.04 s, Step Size: 0.00167 s
 Time Step:  62300, Simulation Time:    130.19 s, Step Size: 0.00135 s
 Time Step:  62400, Simulation Time:    130.32 s, Step Size: 0.00161 s
 Time Step:  62500, Simulation Time:    130.47 s, Step Size: 0.00134 s
 Time Step:  62600, Simulation Time:    130.61 s, Step Size: 0.00155 s
 Time Step:  62700, Simulation Time:    130.75 s, Step Size: 0.00161 s
 Time Step:  62800, Simulation Time:    130.90 s, Step Size: 0.00169 s
 Time Step:  62900, Simulation Time:    131.04 s, Step Size: 0.00161 s
 Time Step:  63000, Simulation Time:    131.18 s, Step Size: 0.00132 s
 Time Step:  63100, Simulation Time:    131.32 s, Step Size: 0.00163 s
 Time Step:  63200, Simulation Time:    131.47 s, Step Size: 0.00140 s
 Time Step:  63300, Simulation Time:    131.62 s, Step Size: 0.00152 s
 Time Step:  63400, Simulation Time:    131.76 s, Step Size: 0.00164 s
 Time Step:  63500, Simulation Time:    131.90 s, Step Size: 0.00165 s
 Time Step:  63600, Simulation Time:    132.05 s, Step Size: 0.00142 s
 Time Step:  63700, Simulation Time:    132.19 s, Step Size: 0.00120 s
 Time Step:  63800, Simulation Time:    132.34 s, Step Size: 0.00112 s
 Time Step:  63900, Simulation Time:    132.49 s, Step Size: 0.00128 s
 Time Step:  64000, Simulation Time:    132.63 s, Step Size: 0.00141 s
 Time Step:  64100, Simulation Time:    132.77 s, Step Size: 0.00140 s
 Time Step:  64200, Simulation Time:    132.91 s, Step Size: 0.00105 s
 Time Step:  64300, Simulation Time:    133.06 s, Step Size: 0.00170 s
 Time Step:  64400, Simulation Time:    133.20 s, Step Size: 0.00131 s
 Time Step:  64500, Simulation Time:    133.34 s, Step Size: 0.00178 s
 Time Step:  64600, Simulation Time:    133.49 s, Step Size: 0.00159 s
 Time Step:  64700, Simulation Time:    133.64 s, Step Size: 0.00189 s
 Time Step:  64800, Simulation Time:    133.79 s, Step Size: 0.00161 s
 Time Step:  64900, Simulation Time:    133.94 s, Step Size: 0.00177 s
 Time Step:  65000, Simulation Time:    134.09 s, Step Size: 0.00152 s
 Time Step:  65100, Simulation Time:    134.24 s, Step Size: 0.00154 s
 Time Step:  65200, Simulation Time:    134.38 s, Step Size: 0.00156 s
 Time Step:  65300, Simulation Time:    134.53 s, Step Size: 0.00170 s
 Time Step:  65400, Simulation Time:    134.67 s, Step Size: 0.00147 s
 Time Step:  65500, Simulation Time:    134.82 s, Step Size: 0.00155 s
 Time Step:  65600, Simulation Time:    134.95 s, Step Size: 0.00123 s
 Time Step:  65700, Simulation Time:    135.09 s, Step Size: 0.00122 s
 Time Step:  65800, Simulation Time:    135.24 s, Step Size: 0.00153 s
 Time Step:  65900, Simulation Time:    135.39 s, Step Size: 0.00167 s
 Time Step:  66000, Simulation Time:    135.53 s, Step Size: 0.00137 s
 Time Step:  66100, Simulation Time:    135.67 s, Step Size: 0.00149 s
 Time Step:  66200, Simulation Time:    135.81 s, Step Size: 0.00158 s
 Time Step:  66300, Simulation Time:    135.95 s, Step Size: 0.00155 s
 Time Step:  66400, Simulation Time:    136.09 s, Step Size: 0.00133 s
 Time Step:  66500, Simulation Time:    136.23 s, Step Size: 0.00151 s
 Time Step:  66600, Simulation Time:    136.37 s, Step Size: 0.00156 s
 Time Step:  66700, Simulation Time:    136.51 s, Step Size: 0.00153 s
 Time Step:  66800, Simulation Time:    136.65 s, Step Size: 0.00130 s
 Time Step:  66900, Simulation Time:    136.79 s, Step Size: 0.00138 s
 Time Step:  67000, Simulation Time:    136.93 s, Step Size: 0.00142 s
 Time Step:  67100, Simulation Time:    137.07 s, Step Size: 0.00104 s
 Time Step:  67200, Simulation Time:    137.20 s, Step Size: 0.00164 s
 Time Step:  67300, Simulation Time:    137.34 s, Step Size: 0.00137 s
 Time Step:  67400, Simulation Time:    137.48 s, Step Size: 0.00125 s
 Time Step:  67500, Simulation Time:    137.62 s, Step Size: 0.00129 s
 Time Step:  67600, Simulation Time:    137.75 s, Step Size: 0.00145 s
 Time Step:  67700, Simulation Time:    137.89 s, Step Size: 0.00163 s
 Time Step:  67800, Simulation Time:    138.04 s, Step Size: 0.00137 s
 Time Step:  67900, Simulation Time:    138.18 s, Step Size: 0.00120 s
 Time Step:  68000, Simulation Time:    138.32 s, Step Size: 0.00137 s
 Time Step:  68100, Simulation Time:    138.46 s, Step Size: 0.00137 s
 Time Step:  68200, Simulation Time:    138.60 s, Step Size: 0.00160 s
 Time Step:  68300, Simulation Time:    138.75 s, Step Size: 0.00161 s
 Time Step:  68400, Simulation Time:    138.89 s, Step Size: 0.00095 s
 Time Step:  68500, Simulation Time:    139.03 s, Step Size: 0.00121 s
 Time Step:  68600, Simulation Time:    139.16 s, Step Size: 0.00140 s
 Time Step:  68700, Simulation Time:    139.30 s, Step Size: 0.00124 s
 Time Step:  68800, Simulation Time:    139.44 s, Step Size: 0.00148 s
 Time Step:  68900, Simulation Time:    139.58 s, Step Size: 0.00158 s
 Time Step:  69000, Simulation Time:    139.73 s, Step Size: 0.00109 s
 Time Step:  69100, Simulation Time:    139.87 s, Step Size: 0.00139 s
 Time Step:  69200, Simulation Time:    140.01 s, Step Size: 0.00177 s
 Time Step:  69300, Simulation Time:    140.15 s, Step Size: 0.00139 s
 Time Step:  69400, Simulation Time:    140.29 s, Step Size: 0.00144 s
 Time Step:  69500, Simulation Time:    140.43 s, Step Size: 0.00156 s
 Time Step:  69600, Simulation Time:    140.58 s, Step Size: 0.00146 s
 Time Step:  69700, Simulation Time:    140.71 s, Step Size: 0.00171 s
 Time Step:  69800, Simulation Time:    140.85 s, Step Size: 0.00153 s
 Time Step:  69900, Simulation Time:    140.99 s, Step Size: 0.00169 s
 Time Step:  70000, Simulation Time:    141.13 s, Step Size: 0.00110 s
 Time Step:  70100, Simulation Time:    141.26 s, Step Size: 0.00143 s
 Time Step:  70200, Simulation Time:    141.40 s, Step Size: 0.00158 s
 Time Step:  70300, Simulation Time:    141.53 s, Step Size: 0.00135 s
 Time Step:  70400, Simulation Time:    141.67 s, Step Size: 0.00122 s
 Time Step:  70500, Simulation Time:    141.81 s, Step Size: 0.00108 s
 Time Step:  70600, Simulation Time:    141.94 s, Step Size: 0.00155 s
 Time Step:  70700, Simulation Time:    142.08 s, Step Size: 0.00131 s
 Time Step:  70800, Simulation Time:    142.21 s, Step Size: 0.00124 s
 Time Step:  70900, Simulation Time:    142.36 s, Step Size: 0.00147 s
 Time Step:  71000, Simulation Time:    142.50 s, Step Size: 0.00136 s
 Time Step:  71100, Simulation Time:    142.65 s, Step Size: 0.00145 s
 Time Step:  71200, Simulation Time:    142.78 s, Step Size: 0.00104 s
 Time Step:  71300, Simulation Time:    142.92 s, Step Size: 0.00121 s
 Time Step:  71400, Simulation Time:    143.06 s, Step Size: 0.00131 s
 Time Step:  71500, Simulation Time:    143.20 s, Step Size: 0.00139 s
 Time Step:  71600, Simulation Time:    143.34 s, Step Size: 0.00147 s
 Time Step:  71700, Simulation Time:    143.48 s, Step Size: 0.00142 s
 Time Step:  71800, Simulation Time:    143.62 s, Step Size: 0.00151 s
 Time Step:  71900, Simulation Time:    143.75 s, Step Size: 0.00154 s
 Time Step:  72000, Simulation Time:    143.89 s, Step Size: 0.00160 s
 Time Step:  72100, Simulation Time:    144.03 s, Step Size: 0.00153 s
 Time Step:  72200, Simulation Time:    144.17 s, Step Size: 0.00140 s
 Time Step:  72300, Simulation Time:    144.31 s, Step Size: 0.00166 s
 Time Step:  72400, Simulation Time:    144.45 s, Step Size: 0.00133 s
 Time Step:  72500, Simulation Time:    144.58 s, Step Size: 0.00123 s
 Time Step:  72600, Simulation Time:    144.72 s, Step Size: 0.00147 s
 Time Step:  72700, Simulation Time:    144.87 s, Step Size: 0.00152 s
 Time Step:  72800, Simulation Time:    145.01 s, Step Size: 0.00140 s
 Time Step:  72900, Simulation Time:    145.15 s, Step Size: 0.00141 s
 Time Step:  73000, Simulation Time:    145.28 s, Step Size: 0.00152 s
 Time Step:  73100, Simulation Time:    145.43 s, Step Size: 0.00123 s
 Time Step:  73200, Simulation Time:    145.56 s, Step Size: 0.00102 s
 Time Step:  73300, Simulation Time:    145.70 s, Step Size: 0.00129 s
 Time Step:  73400, Simulation Time:    145.84 s, Step Size: 0.00145 s
 Time Step:  73500, Simulation Time:    145.98 s, Step Size: 0.00164 s
 Time Step:  73600, Simulation Time:    146.12 s, Step Size: 0.00148 s
 Time Step:  73700, Simulation Time:    146.26 s, Step Size: 0.00135 s
 Time Step:  73800, Simulation Time:    146.40 s, Step Size: 0.00146 s
 Time Step:  73900, Simulation Time:    146.54 s, Step Size: 0.00140 s
 Time Step:  74000, Simulation Time:    146.68 s, Step Size: 0.00159 s
 Time Step:  74100, Simulation Time:    146.83 s, Step Size: 0.00136 s
 Time Step:  74200, Simulation Time:    146.97 s, Step Size: 0.00165 s
 Time Step:  74300, Simulation Time:    147.10 s, Step Size: 0.00144 s
 Time Step:  74400, Simulation Time:    147.24 s, Step Size: 0.00151 s
 Time Step:  74500, Simulation Time:    147.38 s, Step Size: 0.00108 s
 Time Step:  74600, Simulation Time:    147.52 s, Step Size: 0.00146 s
 Time Step:  74700, Simulation Time:    147.65 s, Step Size: 0.00126 s
 Time Step:  74800, Simulation Time:    147.79 s, Step Size: 0.00155 s
 Time Step:  74900, Simulation Time:    147.94 s, Step Size: 0.00171 s
 Time Step:  75000, Simulation Time:    148.07 s, Step Size: 0.00155 s
 Time Step:  75100, Simulation Time:    148.21 s, Step Size: 0.00154 s
 Time Step:  75200, Simulation Time:    148.36 s, Step Size: 0.00149 s
 Time Step:  75300, Simulation Time:    148.50 s, Step Size: 0.00138 s
 Time Step:  75400, Simulation Time:    148.64 s, Step Size: 0.00167 s
 Time Step:  75500, Simulation Time:    148.77 s, Step Size: 0.00165 s
 Time Step:  75600, Simulation Time:    148.91 s, Step Size: 0.00140 s
 Time Step:  75700, Simulation Time:    149.05 s, Step Size: 0.00135 s
 Time Step:  75800, Simulation Time:    149.19 s, Step Size: 0.00161 s
 Time Step:  75900, Simulation Time:    149.33 s, Step Size: 0.00159 s
 Time Step:  76000, Simulation Time:    149.47 s, Step Size: 0.00125 s
 Time Step:  76100, Simulation Time:    149.62 s, Step Size: 0.00151 s
 Time Step:  76200, Simulation Time:    149.75 s, Step Size: 0.00109 s
 Time Step:  76300, Simulation Time:    149.89 s, Step Size: 0.00136 s
 Time Step:  76400, Simulation Time:    150.02 s, Step Size: 0.00126 s
 Time Step:  76500, Simulation Time:    150.16 s, Step Size: 0.00161 s
 Time Step:  76600, Simulation Time:    150.31 s, Step Size: 0.00124 s
 Time Step:  76700, Simulation Time:    150.44 s, Step Size: 0.00151 s
 Time Step:  76800, Simulation Time:    150.59 s, Step Size: 0.00121 s
 Time Step:  76900, Simulation Time:    150.72 s, Step Size: 0.00122 s
 Time Step:  77000, Simulation Time:    150.86 s, Step Size: 0.00140 s
 Time Step:  77100, Simulation Time:    150.99 s, Step Size: 0.00148 s
 Time Step:  77200, Simulation Time:    151.13 s, Step Size: 0.00163 s
 Time Step:  77300, Simulation Time:    151.27 s, Step Size: 0.00135 s
 Time Step:  77400, Simulation Time:    151.41 s, Step Size: 0.00135 s
 Time Step:  77500, Simulation Time:    151.56 s, Step Size: 0.00129 s
 Time Step:  77600, Simulation Time:    151.70 s, Step Size: 0.00119 s
 Time Step:  77700, Simulation Time:    151.84 s, Step Size: 0.00130 s
 Time Step:  77800, Simulation Time:    151.98 s, Step Size: 0.00168 s
 Time Step:  77900, Simulation Time:    152.14 s, Step Size: 0.00134 s
 Time Step:  78000, Simulation Time:    152.28 s, Step Size: 0.00145 s
 Time Step:  78100, Simulation Time:    152.42 s, Step Size: 0.00125 s
 Time Step:  78200, Simulation Time:    152.57 s, Step Size: 0.00148 s
 Time Step:  78300, Simulation Time:    152.71 s, Step Size: 0.00141 s
 Time Step:  78400, Simulation Time:    152.86 s, Step Size: 0.00151 s
 Time Step:  78500, Simulation Time:    153.02 s, Step Size: 0.00158 s
 Time Step:  78600, Simulation Time:    153.17 s, Step Size: 0.00143 s
 Time Step:  78700, Simulation Time:    153.31 s, Step Size: 0.00148 s
 Time Step:  78800, Simulation Time:    153.47 s, Step Size: 0.00165 s
 Time Step:  78900, Simulation Time:    153.61 s, Step Size: 0.00152 s
 Time Step:  79000, Simulation Time:    153.76 s, Step Size: 0.00167 s
 Time Step:  79100, Simulation Time:    153.92 s, Step Size: 0.00158 s
 Time Step:  79200, Simulation Time:    154.07 s, Step Size: 0.00135 s
 Time Step:  79300, Simulation Time:    154.22 s, Step Size: 0.00110 s
 Time Step:  79400, Simulation Time:    154.36 s, Step Size: 0.00146 s
 Time Step:  79500, Simulation Time:    154.51 s, Step Size: 0.00159 s
 Time Step:  79600, Simulation Time:    154.66 s, Step Size: 0.00177 s
 Time Step:  79700, Simulation Time:    154.81 s, Step Size: 0.00158 s
 Time Step:  79800, Simulation Time:    154.96 s, Step Size: 0.00146 s
 Time Step:  79900, Simulation Time:    155.10 s, Step Size: 0.00139 s
 Time Step:  80000, Simulation Time:    155.25 s, Step Size: 0.00150 s
 Time Step:  80100, Simulation Time:    155.39 s, Step Size: 0.00158 s
 Time Step:  80200, Simulation Time:    155.53 s, Step Size: 0.00148 s
 Time Step:  80300, Simulation Time:    155.68 s, Step Size: 0.00149 s
 Time Step:  80400, Simulation Time:    155.83 s, Step Size: 0.00142 s
 Time Step:  80500, Simulation Time:    155.97 s, Step Size: 0.00151 s
 Time Step:  80600, Simulation Time:    156.12 s, Step Size: 0.00156 s
 Time Step:  80700, Simulation Time:    156.26 s, Step Size: 0.00154 s
 Time Step:  80800, Simulation Time:    156.42 s, Step Size: 0.00172 s
 Time Step:  80900, Simulation Time:    156.57 s, Step Size: 0.00152 s
 Time Step:  81000, Simulation Time:    156.71 s, Step Size: 0.00135 s
 Time Step:  81100, Simulation Time:    156.86 s, Step Size: 0.00135 s
 Time Step:  81200, Simulation Time:    157.01 s, Step Size: 0.00162 s
 Time Step:  81300, Simulation Time:    157.16 s, Step Size: 0.00122 s
 Time Step:  81400, Simulation Time:    157.30 s, Step Size: 0.00109 s
 Time Step:  81500, Simulation Time:    157.43 s, Step Size: 0.00122 s
 Time Step:  81600, Simulation Time:    157.57 s, Step Size: 0.00119 s
 Time Step:  81700, Simulation Time:    157.71 s, Step Size: 0.00147 s
 Time Step:  81800, Simulation Time:    157.85 s, Step Size: 0.00146 s
 Time Step:  81900, Simulation Time:    157.99 s, Step Size: 0.00160 s
 Time Step:  82000, Simulation Time:    158.13 s, Step Size: 0.00120 s
 Time Step:  82100, Simulation Time:    158.27 s, Step Size: 0.00124 s
 Time Step:  82200, Simulation Time:    158.41 s, Step Size: 0.00118 s
 Time Step:  82300, Simulation Time:    158.55 s, Step Size: 0.00147 s
 Time Step:  82400, Simulation Time:    158.69 s, Step Size: 0.00149 s
[...]
 Time Step: 219700, Simulation Time:    360.24 s, Step Size: 0.00121 s
 Time Step: 219800, Simulation Time:    360.38 s, Step Size: 0.00152 s
 Time Step: 219900, Simulation Time:    360.52 s, Step Size: 0.00141 s
 Time Step: 220000, Simulation Time:    360.66 s, Step Size: 0.00147 s
 Time Step: 220100, Simulation Time:    360.81 s, Step Size: 0.00123 s
 Time Step: 220200, Simulation Time:    360.94 s, Step Size: 0.00126 s
 Time Step: 220300, Simulation Time:    361.09 s, Step Size: 0.00133 s
 Time Step: 220400, Simulation Time:    361.23 s, Step Size: 0.00178 s
 Time Step: 220500, Simulation Time:    361.39 s, Step Size: 0.00146 s
 Time Step: 220600, Simulation Time:    361.55 s, Step Size: 0.00157 s
 Time Step: 220700, Simulation Time:    361.70 s, Step Size: 0.00167 s
 Time Step: 220800, Simulation Time:    361.86 s, Step Size: 0.00157 s
 Time Step: 220900, Simulation Time:    362.00 s, Step Size: 0.00116 s
 Time Step: 221000, Simulation Time:    362.16 s, Step Size: 0.00157 s
 Time Step: 221100, Simulation Time:    362.29 s, Step Size: 0.00177 s
 Time Step: 221200, Simulation Time:    362.44 s, Step Size: 0.00105 s
 Time Step: 221300, Simulation Time:    362.58 s, Step Size: 0.00135 s
 Time Step: 221400, Simulation Time:    362.73 s, Step Size: 0.00151 s
 Time Step: 221500, Simulation Time:    362.87 s, Step Size: 0.00125 s
 Time Step: 221600, Simulation Time:    363.02 s, Step Size: 0.00122 s
 Time Step: 221700, Simulation Time:    363.17 s, Step Size: 0.00152 s
 Time Step: 221800, Simulation Time:    363.31 s, Step Size: 0.00120 s
 Time Step: 221900, Simulation Time:    363.46 s, Step Size: 0.00147 s
 Time Step: 222000, Simulation Time:    363.61 s, Step Size: 0.00152 s
 Time Step: 222100, Simulation Time:    363.76 s, Step Size: 0.00116 s
 Time Step: 222200, Simulation Time:    363.91 s, Step Size: 0.00127 s
 Time Step: 222300, Simulation Time:    364.07 s, Step Size: 0.00181 s
 Time Step: 222400, Simulation Time:    364.23 s, Step Size: 0.00120 s
 Time Step: 222500, Simulation Time:    364.38 s, Step Size: 0.00188 s
 Time Step: 222600, Simulation Time:    364.55 s, Step Size: 0.00211 s
 Time Step: 222700, Simulation Time:    364.72 s, Step Size: 0.00122 s
 Time Step: 222800, Simulation Time:    364.89 s, Step Size: 0.00131 s
 Time Step: 222900, Simulation Time:    365.04 s, Step Size: 0.00157 s
 Time Step: 223000, Simulation Time:    365.19 s, Step Size: 0.00145 s
 Time Step: 223100, Simulation Time:    365.34 s, Step Size: 0.00166 s
 Time Step: 223200, Simulation Time:    365.50 s, Step Size: 0.00159 s
 Time Step: 223300, Simulation Time:    365.65 s, Step Size: 0.00133 s
 Time Step: 223400, Simulation Time:    365.80 s, Step Size: 0.00158 s
 Time Step: 223500, Simulation Time:    365.96 s, Step Size: 0.00146 s
 Time Step: 223600, Simulation Time:    366.12 s, Step Size: 0.00160 s
 Time Step: 223700, Simulation Time:    366.28 s, Step Size: 0.00152 s
 Time Step: 223800, Simulation Time:    366.45 s, Step Size: 0.00163 s
 Time Step: 223900, Simulation Time:    366.61 s, Step Size: 0.00144 s
 Time Step: 224000, Simulation Time:    366.76 s, Step Size: 0.00127 s
 Time Step: 224100, Simulation Time:    366.92 s, Step Size: 0.00149 s
 Time Step: 224200, Simulation Time:    367.07 s, Step Size: 0.00122 s
 Time Step: 224300, Simulation Time:    367.23 s, Step Size: 0.00159 s
 Time Step: 224400, Simulation Time:    367.38 s, Step Size: 0.00157 s
 Time Step: 224500, Simulation Time:    367.54 s, Step Size: 0.00155 s
 Time Step: 224600, Simulation Time:    367.69 s, Step Size: 0.00174 s
 Time Step: 224700, Simulation Time:    367.85 s, Step Size: 0.00167 s
 Time Step: 224800, Simulation Time:    368.02 s, Step Size: 0.00158 s
 Time Step: 224900, Simulation Time:    368.18 s, Step Size: 0.00143 s
 Time Step: 225000, Simulation Time:    368.34 s, Step Size: 0.00150 s
 Time Step: 225100, Simulation Time:    368.50 s, Step Size: 0.00146 s
 Time Step: 225200, Simulation Time:    368.66 s, Step Size: 0.00136 s
 Time Step: 225300, Simulation Time:    368.83 s, Step Size: 0.00140 s
 Time Step: 225400, Simulation Time:    369.00 s, Step Size: 0.00151 s
 Time Step: 225500, Simulation Time:    369.16 s, Step Size: 0.00151 s
 Time Step: 225600, Simulation Time:    369.32 s, Step Size: 0.00162 s
 Time Step: 225700, Simulation Time:    369.47 s, Step Size: 0.00153 s
 Time Step: 225800, Simulation Time:    369.63 s, Step Size: 0.00138 s
 Time Step: 225900, Simulation Time:    369.79 s, Step Size: 0.00168 s
 Time Step: 226000, Simulation Time:    369.94 s, Step Size: 0.00142 s
 Time Step: 226100, Simulation Time:    370.09 s, Step Size: 0.00152 s
 Time Step: 226200, Simulation Time:    370.25 s, Step Size: 0.00163 s
 Time Step: 226300, Simulation Time:    370.40 s, Step Size: 0.00163 s
 Time Step: 226400, Simulation Time:    370.56 s, Step Size: 0.00185 s
 Time Step: 226500, Simulation Time:    370.72 s, Step Size: 0.00166 s
 Time Step: 226600, Simulation Time:    370.87 s, Step Size: 0.00123 s
 Time Step: 226700, Simulation Time:    371.03 s, Step Size: 0.00166 s
 Time Step: 226800, Simulation Time:    371.18 s, Step Size: 0.00148 s
 Time Step: 226900, Simulation Time:    371.33 s, Step Size: 0.00140 s
 Time Step: 227000, Simulation Time:    371.47 s, Step Size: 0.00104 s
 Time Step: 227100, Simulation Time:    371.61 s, Step Size: 0.00114 s
 Time Step: 227200, Simulation Time:    371.74 s, Step Size: 0.00097 s
 Time Step: 227300, Simulation Time:    371.88 s, Step Size: 0.00153 s
 Time Step: 227400, Simulation Time:    372.02 s, Step Size: 0.00142 s
 Time Step: 227500, Simulation Time:    372.16 s, Step Size: 0.00137 s
 Time Step: 227600, Simulation Time:    372.31 s, Step Size: 0.00140 s
 Time Step: 227700, Simulation Time:    372.45 s, Step Size: 0.00123 s
 Time Step: 227800, Simulation Time:    372.59 s, Step Size: 0.00124 s
 Time Step: 227900, Simulation Time:    372.73 s, Step Size: 0.00143 s
 Time Step: 228000, Simulation Time:    372.87 s, Step Size: 0.00101 s
 Time Step: 228100, Simulation Time:    373.01 s, Step Size: 0.00094 s
 Time Step: 228200, Simulation Time:    373.16 s, Step Size: 0.00118 s
 Time Step: 228300, Simulation Time:    373.30 s, Step Size: 0.00138 s
 Time Step: 228400, Simulation Time:    373.43 s, Step Size: 0.00133 s
 Time Step: 228500, Simulation Time:    373.57 s, Step Size: 0.00143 s
 Time Step: 228600, Simulation Time:    373.72 s, Step Size: 0.00126 s
 Time Step: 228700, Simulation Time:    373.86 s, Step Size: 0.00132 s
 Time Step: 228800, Simulation Time:    374.00 s, Step Size: 0.00113 s
 Time Step: 228900, Simulation Time:    374.14 s, Step Size: 0.00156 s
 Time Step: 229000, Simulation Time:    374.27 s, Step Size: 0.00127 s
 Time Step: 229100, Simulation Time:    374.41 s, Step Size: 0.00108 s
 Time Step: 229200, Simulation Time:    374.56 s, Step Size: 0.00166 s
 Time Step: 229300, Simulation Time:    374.69 s, Step Size: 0.00125 s
 Time Step: 229400, Simulation Time:    374.84 s, Step Size: 0.00154 s
 Time Step: 229500, Simulation Time:    374.98 s, Step Size: 0.00166 s
 Time Step: 229600, Simulation Time:    375.12 s, Step Size: 0.00158 s
 Time Step: 229700, Simulation Time:    375.26 s, Step Size: 0.00147 s
 Time Step: 229800, Simulation Time:    375.40 s, Step Size: 0.00157 s
 Time Step: 229900, Simulation Time:    375.54 s, Step Size: 0.00151 s
 Time Step: 230000, Simulation Time:    375.69 s, Step Size: 0.00150 s
 Time Step: 230100, Simulation Time:    375.83 s, Step Size: 0.00179 s
 Time Step: 230200, Simulation Time:    375.98 s, Step Size: 0.00141 s
 Time Step: 230300, Simulation Time:    376.14 s, Step Size: 0.00162 s
 Time Step: 230400, Simulation Time:    376.29 s, Step Size: 0.00147 s
 Time Step: 230500, Simulation Time:    376.45 s, Step Size: 0.00132 s
 Time Step: 230600, Simulation Time:    376.59 s, Step Size: 0.00130 s
 Time Step: 230700, Simulation Time:    376.74 s, Step Size: 0.00137 s
 Time Step: 230800, Simulation Time:    376.89 s, Step Size: 0.00133 s
 Time Step: 230900, Simulation Time:    377.04 s, Step Size: 0.00155 s
 Time Step: 231000, Simulation Time:    377.18 s, Step Size: 0.00171 s
 Time Step: 231100, Simulation Time:    377.33 s, Step Size: 0.00154 s
 Time Step: 231200, Simulation Time:    377.48 s, Step Size: 0.00134 s
 Time Step: 231300, Simulation Time:    377.63 s, Step Size: 0.00140 s
 Time Step: 231400, Simulation Time:    377.77 s, Step Size: 0.00134 s
 Time Step: 231500, Simulation Time:    377.91 s, Step Size: 0.00123 s
 Time Step: 231600, Simulation Time:    378.05 s, Step Size: 0.00165 s
 Time Step: 231700, Simulation Time:    378.19 s, Step Size: 0.00162 s
 Time Step: 231800, Simulation Time:    378.34 s, Step Size: 0.00150 s
 Time Step: 231900, Simulation Time:    378.48 s, Step Size: 0.00144 s
 Time Step: 232000, Simulation Time:    378.62 s, Step Size: 0.00106 s
 Time Step: 232100, Simulation Time:    378.75 s, Step Size: 0.00130 s
 Time Step: 232200, Simulation Time:    378.90 s, Step Size: 0.00116 s
 Time Step: 232300, Simulation Time:    379.04 s, Step Size: 0.00140 s
 Time Step: 232400, Simulation Time:    379.17 s, Step Size: 0.00114 s
 Time Step: 232500, Simulation Time:    379.32 s, Step Size: 0.00154 s
 Time Step: 232600, Simulation Time:    379.45 s, Step Size: 0.00119 s
 Time Step: 232700, Simulation Time:    379.59 s, Step Size: 0.00163 s
 Time Step: 232800, Simulation Time:    379.73 s, Step Size: 0.00109 s
 Time Step: 232900, Simulation Time:    379.87 s, Step Size: 0.00139 s
 Time Step: 233000, Simulation Time:    380.01 s, Step Size: 0.00117 s
 Time Step: 233100, Simulation Time:    380.15 s, Step Size: 0.00120 s
 Time Step: 233200, Simulation Time:    380.29 s, Step Size: 0.00149 s
 Time Step: 233300, Simulation Time:    380.43 s, Step Size: 0.00137 s
 Time Step: 233400, Simulation Time:    380.56 s, Step Size: 0.00102 s
 Time Step: 233500, Simulation Time:    380.70 s, Step Size: 0.00147 s
 Time Step: 233600, Simulation Time:    380.84 s, Step Size: 0.00114 s
 Time Step: 233700, Simulation Time:    380.98 s, Step Size: 0.00133 s
 Time Step: 233800, Simulation Time:    381.12 s, Step Size: 0.00159 s
 Time Step: 233900, Simulation Time:    381.27 s, Step Size: 0.00124 s
 Time Step: 234000, Simulation Time:    381.41 s, Step Size: 0.00142 s
 Time Step: 234100, Simulation Time:    381.56 s, Step Size: 0.00142 s
 Time Step: 234200, Simulation Time:    381.70 s, Step Size: 0.00180 s
 Time Step: 234300, Simulation Time:    381.85 s, Step Size: 0.00115 s
 Time Step: 234400, Simulation Time:    382.00 s, Step Size: 0.00149 s
 Time Step: 234500, Simulation Time:    382.14 s, Step Size: 0.00171 s
 Time Step: 234600, Simulation Time:    382.30 s, Step Size: 0.00160 s
 Time Step: 234700, Simulation Time:    382.44 s, Step Size: 0.00140 s
 Time Step: 234800, Simulation Time:    382.59 s, Step Size: 0.00129 s
 Time Step: 234900, Simulation Time:    382.73 s, Step Size: 0.00142 s
 Time Step: 235000, Simulation Time:    382.87 s, Step Size: 0.00135 s
 Time Step: 235100, Simulation Time:    383.00 s, Step Size: 0.00121 s
 Time Step: 235200, Simulation Time:    383.14 s, Step Size: 0.00141 s
 Time Step: 235300, Simulation Time:    383.29 s, Step Size: 0.00126 s
 Time Step: 235400, Simulation Time:    383.44 s, Step Size: 0.00144 s
 Time Step: 235500, Simulation Time:    383.58 s, Step Size: 0.00159 s
 Time Step: 235600, Simulation Time:    383.73 s, Step Size: 0.00158 s
 Time Step: 235700, Simulation Time:    383.87 s, Step Size: 0.00158 s
 Time Step: 235800, Simulation Time:    384.00 s, Step Size: 0.00140 s
 Time Step: 235900, Simulation Time:    384.14 s, Step Size: 0.00158 s
 Time Step: 236000, Simulation Time:    384.28 s, Step Size: 0.00157 s
 Time Step: 236100, Simulation Time:    384.41 s, Step Size: 0.00139 s
 Time Step: 236200, Simulation Time:    384.55 s, Step Size: 0.00164 s
 Time Step: 236300, Simulation Time:    384.69 s, Step Size: 0.00141 s
 Time Step: 236400, Simulation Time:    384.83 s, Step Size: 0.00138 s
 Time Step: 236500, Simulation Time:    384.97 s, Step Size: 0.00108 s
 Time Step: 236600, Simulation Time:    385.11 s, Step Size: 0.00162 s
 Time Step: 236700, Simulation Time:    385.25 s, Step Size: 0.00145 s
 Time Step: 236800, Simulation Time:    385.39 s, Step Size: 0.00142 s
 Time Step: 236900, Simulation Time:    385.53 s, Step Size: 0.00151 s
 Time Step: 237000, Simulation Time:    385.67 s, Step Size: 0.00131 s
 Time Step: 237100, Simulation Time:    385.82 s, Step Size: 0.00139 s
 Time Step: 237200, Simulation Time:    385.96 s, Step Size: 0.00142 s
 Time Step: 237300, Simulation Time:    386.10 s, Step Size: 0.00135 s
 Time Step: 237400, Simulation Time:    386.25 s, Step Size: 0.00149 s
 Time Step: 237500, Simulation Time:    386.39 s, Step Size: 0.00130 s
 Time Step: 237600, Simulation Time:    386.54 s, Step Size: 0.00160 s
 Time Step: 237700, Simulation Time:    386.69 s, Step Size: 0.00152 s
 Time Step: 237800, Simulation Time:    386.83 s, Step Size: 0.00138 s
 Time Step: 237900, Simulation Time:    386.98 s, Step Size: 0.00152 s
 Time Step: 238000, Simulation Time:    387.14 s, Step Size: 0.00173 s
 Time Step: 238100, Simulation Time:    387.29 s, Step Size: 0.00149 s
 Time Step: 238200, Simulation Time:    387.44 s, Step Size: 0.00130 s
 Time Step: 238300, Simulation Time:    387.60 s, Step Size: 0.00153 s
 Time Step: 238400, Simulation Time:    387.76 s, Step Size: 0.00123 s
 Time Step: 238500, Simulation Time:    387.92 s, Step Size: 0.00143 s
 Time Step: 238600, Simulation Time:    388.08 s, Step Size: 0.00151 s
 Time Step: 238700, Simulation Time:    388.24 s, Step Size: 0.00088 s
 Time Step: 238800, Simulation Time:    388.38 s, Step Size: 0.00127 s
 Time Step: 238900, Simulation Time:    388.53 s, Step Size: 0.00168 s
 Time Step: 239000, Simulation Time:    388.68 s, Step Size: 0.00147 s
 Time Step: 239100, Simulation Time:    388.84 s, Step Size: 0.00123 s
 Time Step: 239200, Simulation Time:    388.98 s, Step Size: 0.00154 s
 Time Step: 239300, Simulation Time:    389.13 s, Step Size: 0.00152 s
 Time Step: 239400, Simulation Time:    389.28 s, Step Size: 0.00114 s
 Time Step: 239500, Simulation Time:    389.43 s, Step Size: 0.00114 s
 Time Step: 239600, Simulation Time:    389.58 s, Step Size: 0.00173 s
 Time Step: 239700, Simulation Time:    389.73 s, Step Size: 0.00151 s
 Time Step: 239800, Simulation Time:    389.89 s, Step Size: 0.00163 s
 Time Step: 239900, Simulation Time:    390.03 s, Step Size: 0.00159 s
 Time Step: 240000, Simulation Time:    390.17 s, Step Size: 0.00119 s
 Time Step: 240100, Simulation Time:    390.31 s, Step Size: 0.00170 s
 Time Step: 240200, Simulation Time:    390.45 s, Step Size: 0.00120 s
 Time Step: 240300, Simulation Time:    390.60 s, Step Size: 0.00157 s
 Time Step: 240400, Simulation Time:    390.74 s, Step Size: 0.00164 s
 Time Step: 240500, Simulation Time:    390.88 s, Step Size: 0.00159 s
 Time Step: 240600, Simulation Time:    391.03 s, Step Size: 0.00114 s
 Time Step: 240700, Simulation Time:    391.17 s, Step Size: 0.00153 s
 Time Step: 240800, Simulation Time:    391.32 s, Step Size: 0.00162 s
 Time Step: 240900, Simulation Time:    391.46 s, Step Size: 0.00151 s
 Time Step: 241000, Simulation Time:    391.60 s, Step Size: 0.00147 s
 Time Step: 241100, Simulation Time:    391.73 s, Step Size: 0.00133 s
 Time Step: 241200, Simulation Time:    391.87 s, Step Size: 0.00145 s
 Time Step: 241300, Simulation Time:    392.02 s, Step Size: 0.00135 s
 Time Step: 241400, Simulation Time:    392.16 s, Step Size: 0.00126 s
 Time Step: 241500, Simulation Time:    392.30 s, Step Size: 0.00175 s
 Time Step: 241600, Simulation Time:    392.44 s, Step Size: 0.00127 s
 Time Step: 241700, Simulation Time:    392.59 s, Step Size: 0.00111 s
 Time Step: 241800, Simulation Time:    392.74 s, Step Size: 0.00120 s
 Time Step: 241900, Simulation Time:    392.88 s, Step Size: 0.00115 s
 Time Step: 242000, Simulation Time:    393.03 s, Step Size: 0.00166 s
 Time Step: 242100, Simulation Time:    393.17 s, Step Size: 0.00111 s
 Time Step: 242200, Simulation Time:    393.31 s, Step Size: 0.00134 s
 Time Step: 242300, Simulation Time:    393.45 s, Step Size: 0.00145 s
 Time Step: 242400, Simulation Time:    393.59 s, Step Size: 0.00120 s
 Time Step: 242500, Simulation Time:    393.74 s, Step Size: 0.00130 s
 Time Step: 242600, Simulation Time:    393.89 s, Step Size: 0.00129 s
 Time Step: 242700, Simulation Time:    394.04 s, Step Size: 0.00174 s
 Time Step: 242800, Simulation Time:    394.18 s, Step Size: 0.00124 s
 Time Step: 242900, Simulation Time:    394.34 s, Step Size: 0.00176 s
 Time Step: 243000, Simulation Time:    394.49 s, Step Size: 0.00147 s
 Time Step: 243100, Simulation Time:    394.64 s, Step Size: 0.00193 s
 Time Step: 243200, Simulation Time:    394.78 s, Step Size: 0.00140 s
 Time Step: 243300, Simulation Time:    394.92 s, Step Size: 0.00121 s
 Time Step: 243400, Simulation Time:    395.05 s, Step Size: 0.00139 s
 Time Step: 243500, Simulation Time:    395.20 s, Step Size: 0.00132 s
 Time Step: 243600, Simulation Time:    395.33 s, Step Size: 0.00105 s
 Time Step: 243700, Simulation Time:    395.47 s, Step Size: 0.00115 s
 Time Step: 243800, Simulation Time:    395.60 s, Step Size: 0.00159 s
 Time Step: 243900, Simulation Time:    395.75 s, Step Size: 0.00130 s
 Time Step: 244000, Simulation Time:    395.89 s, Step Size: 0.00149 s
 Time Step: 244100, Simulation Time:    396.04 s, Step Size: 0.00144 s
 Time Step: 244200, Simulation Time:    396.18 s, Step Size: 0.00105 s
 Time Step: 244300, Simulation Time:    396.32 s, Step Size: 0.00114 s
 Time Step: 244400, Simulation Time:    396.45 s, Step Size: 0.00141 s
 Time Step: 244500, Simulation Time:    396.60 s, Step Size: 0.00157 s
 Time Step: 244600, Simulation Time:    396.74 s, Step Size: 0.00156 s
 Time Step: 244700, Simulation Time:    396.89 s, Step Size: 0.00135 s
 Time Step: 244800, Simulation Time:    397.03 s, Step Size: 0.00141 s
 Time Step: 244900, Simulation Time:    397.17 s, Step Size: 0.00147 s
 Time Step: 245000, Simulation Time:    397.32 s, Step Size: 0.00142 s
 Time Step: 245100, Simulation Time:    397.46 s, Step Size: 0.00127 s
 Time Step: 245200, Simulation Time:    397.59 s, Step Size: 0.00153 s
 Time Step: 245300, Simulation Time:    397.73 s, Step Size: 0.00162 s
 Time Step: 245400, Simulation Time:    397.87 s, Step Size: 0.00161 s
 Time Step: 245500, Simulation Time:    398.01 s, Step Size: 0.00122 s
 Time Step: 245600, Simulation Time:    398.15 s, Step Size: 0.00131 s
 Time Step: 245700, Simulation Time:    398.31 s, Step Size: 0.00156 s
 Time Step: 245800, Simulation Time:    398.46 s, Step Size: 0.00153 s
 Time Step: 245900, Simulation Time:    398.61 s, Step Size: 0.00176 s
 Time Step: 246000, Simulation Time:    398.76 s, Step Size: 0.00145 s
 Time Step: 246100, Simulation Time:    398.91 s, Step Size: 0.00152 s
 Time Step: 246200, Simulation Time:    399.06 s, Step Size: 0.00148 s
 Time Step: 246300, Simulation Time:    399.21 s, Step Size: 0.00136 s
 Time Step: 246400, Simulation Time:    399.36 s, Step Size: 0.00149 s
 Time Step: 246500, Simulation Time:    399.50 s, Step Size: 0.00153 s
 Time Step: 246600, Simulation Time:    399.66 s, Step Size: 0.00132 s
 Time Step: 246700, Simulation Time:    399.81 s, Step Size: 0.00139 s
 Time Step: 246800, Simulation Time:    399.96 s, Step Size: 0.00145 s
 Time Step: 246832, Simulation Time:    400.00 s, Step Size: 0.00050 s


 DEVICE Activation Times

  29  nozzle                                                          95.0 s
  30  nozzle                                                          95.0 s
  31  nozzle                                                          95.0 s
  32  nozzle                                                          95.0 s
  33  nozzle                                                          95.0 s


 Time Stepping Wall Clock Time (s):    78694.268
 Total Elapsed Wall Clock Time (s):    78703.121

STOP: FDS completed successfully (CHID: Case2_Methanol_33kw)
